
     RDKit          3D

 22 24  0  0  0  0  0  0  0  0999 V2000
    0.4587    3.5412    0.3516 C   0  0  0  0  0  0  0  0  0  0  0  0
   -0.8868    3.7479    0.5011 N   0  0  0  0  0  0  0  0  0  0  0  0
   -1.2233    3.1523    1.6174 C   0  0  0  0  0  0  0  0  0  0  0  0
   -0.1514    2.5586    2.2534 N   0  0  0  0  0  0  0  0  0  0  0  0
    0.9335    2.7825    1.4193 C   0  0  0  0  0  0  0  0  0  0  0  0
    2.2868    2.2616    1.6577 C   0  0  0  0  0  0  0  0  0  0  0  0
    2.8364    2.7363    2.9339 N   0  0  1  0  0  0  0  0  0  0  0  0
    2.8911    4.2076    3.1507 C   0  0  0  0  0  0  0  0  0  0  0  0
    2.3439    1.9971    4.0676 C   0  0  0  0  0  0  0  0  0  0  0  0
    3.2717    1.6686    4.7820 O   0  0  0  0  0  0  0  0  0  0  0  0
    0.9279    1.6204    4.3277 C   0  0  0  0  0  0  0  0  0  0  0  0
    0.7474    0.9447    5.5553 C   0  0  0  0  0  0  0  0  0  0  0  0
   -0.5126    0.5456    5.9743 C   0  0  0  0  0  0  0  0  0  0  0  0
   -0.6488   -0.0908    7.1420 F   0  0  0  0  0  0  0  0  0  0  0  0
   -1.6232    0.7990    5.1955 C   0  0  0  0  0  0  0  0  0  0  0  0
   -1.4703    1.4633    3.9766 C   0  0  0  0  0  0  0  0  0  0  0  0
   -0.1994    1.8865    3.5167 C   0  0  0  0  0  0  0  0  0  0  0  0
    1.2397    4.0759   -0.7719 C   0  0  0  0  0  0  0  0  0  0  0  0
    2.0129    5.0163   -0.6281 O   0  0  0  0  0  0  0  0  0  0  0  0
    0.9943    3.4305   -1.9418 O   0  0  0  0  0  0  0  0  0  0  0  0
   -0.7148    4.7379   -3.0501 C   0  0  0  0  0  0  0  0  0  0  0  0
    0.7228    4.2548   -3.0843 C   0  0  0  0  0  0  0  0  0  0  0  0
 21 22  1  0
 22 20  1  0
 20 18  1  0
 18 19  2  0
 18  1  1  0
  1  2  1  0
  2  3  2  0
  3  4  1  0
  4  5  1  0
  5  6  1  0
  6  7  1  0
  7  8  1  1
  7  9  1  0
  9 10  2  0
  9 11  1  0
 11 12  2  0
 12 13  1  0
 13 14  1  0
 13 15  2  0
 15 16  1  0
 16 17  2  0
  5  1  2  0
 17 11  1  0
 17  4  1  0
M  CHG  1   7   1
M  END
>  <minimizedAffinity>  (1) 
0.00000

>  <CNNscore>  (1) 
0.8505207300

>  <CNNaffinity>  (1) 
4.0418124199

>  <CNN_VS>  (1) 
3.4376451969

>  <CNNaffinity_variance>  (1) 
0.5311397314

$$$$

     RDKit          3D

 22 24  0  0  0  0  0  0  0  0999 V2000
   -1.6529   -2.5817    1.2765 C   0  0  0  0  0  0  0  0  0  0  0  0
   -2.1399   -1.3532    1.6359 N   0  0  0  0  0  0  0  0  0  0  0  0
   -3.2693   -1.5788    2.2584 C   0  0  0  0  0  0  0  0  0  0  0  0
   -3.5681   -2.9230    2.3581 N   0  0  0  0  0  0  0  0  0  0  0  0
   -2.5379   -3.5728    1.6953 C   0  0  0  0  0  0  0  0  0  0  0  0
   -2.4728   -5.0252    1.4814 C   0  0  0  0  0  0  0  0  0  0  0  0
   -2.4730   -5.7634    2.7508 N   0  0  1  0  0  0  0  0  0  0  0  0
   -1.4172   -5.4208    3.7421 C   0  0  0  0  0  0  0  0  0  0  0  0
   -3.7882   -5.8988    3.3220 C   0  0  0  0  0  0  0  0  0  0  0  0
   -3.9811   -7.0548    3.6467 O   0  0  0  0  0  0  0  0  0  0  0  0
   -4.8073   -4.8227    3.4551 C   0  0  0  0  0  0  0  0  0  0  0  0
   -5.9843   -5.2476    4.1111 C   0  0  0  0  0  0  0  0  0  0  0  0
   -7.0288   -4.3675    4.3492 C   0  0  0  0  0  0  0  0  0  0  0  0
   -8.1283   -4.8018    4.9735 F   0  0  0  0  0  0  0  0  0  0  0  0
   -6.9417   -3.0508    3.9459 C   0  0  0  0  0  0  0  0  0  0  0  0
   -5.7895   -2.6071    3.2933 C   0  0  0  0  0  0  0  0  0  0  0  0
   -4.7024   -3.4770    3.0337 C   0  0  0  0  0  0  0  0  0  0  0  0
   -0.3767   -2.7725    0.5742 C   0  0  0  0  0  0  0  0  0  0  0  0
   -0.1806   -3.7406   -0.1520 O   0  0  0  0  0  0  0  0  0  0  0  0
    0.5226   -1.7880    0.8334 O   0  0  0  0  0  0  0  0  0  0  0  0
    1.5100    0.1392   -0.2481 C   0  0  0  0  0  0  0  0  0  0  0  0
    1.3486   -1.3691   -0.2624 C   0  0  0  0  0  0  0  0  0  0  0  0
 21 22  1  0
 22 20  1  0
 20 18  1  0
 18 19  2  0
 18  1  1  0
  1  2  1  0
  2  3  2  0
  3  4  1  0
  4  5  1  0
  5  6  1  0
  6  7  1  0
  7  8  1  1
  7  9  1  0
  9 10  2  0
  9 11  1  0
 11 12  2  0
 12 13  1  0
 13 14  1  0
 13 15  2  0
 15 16  1  0
 16 17  2  0
  5  1  2  0
 17 11  1  0
 17  4  1  0
M  CHG  1   7   1
M  END
>  <minimizedAffinity>  (2) 
0.00000

>  <CNNscore>  (2) 
0.8504800200

>  <CNNaffinity>  (2) 
3.9720962048

>  <CNN_VS>  (2) 
3.3781883717

>  <CNNaffinity_variance>  (2) 
0.4985592365

$$$$

     RDKit          3D

 22 24  0  0  0  0  0  0  0  0999 V2000
    1.4744   -3.4283    3.1200 C   0  0  0  0  0  0  0  0  0  0  0  0
    2.3940   -3.0518    4.0624 N   0  0  0  0  0  0  0  0  0  0  0  0
    3.4794   -3.7368    3.8039 C   0  0  0  0  0  0  0  0  0  0  0  0
    3.3459   -4.5586    2.7026 N   0  0  0  0  0  0  0  0  0  0  0  0
    2.0379   -4.3836    2.2768 C   0  0  0  0  0  0  0  0  0  0  0  0
    1.4194   -5.1213    1.1666 C   0  0  0  0  0  0  0  0  0  0  0  0
    2.1360   -4.9061   -0.0969 N   0  0  1  0  0  0  0  0  0  0  0  0
    2.3133   -3.5005   -0.5524 C   0  0  0  0  0  0  0  0  0  0  0  0
    3.3241   -5.7118   -0.2134 C   0  0  0  0  0  0  0  0  0  0  0  0
    3.3453   -6.2633   -1.2971 O   0  0  0  0  0  0  0  0  0  0  0  0
    4.3607   -5.9119    0.8353 C   0  0  0  0  0  0  0  0  0  0  0  0
    5.4420   -6.7130    0.4046 C   0  0  0  0  0  0  0  0  0  0  0  0
    6.5142   -6.9789    1.2424 C   0  0  0  0  0  0  0  0  0  0  0  0
    7.5219   -7.7397    0.8032 F   0  0  0  0  0  0  0  0  0  0  0  0
    6.5472   -6.4661    2.5230 C   0  0  0  0  0  0  0  0  0  0  0  0
    5.4891   -5.6734    2.9729 C   0  0  0  0  0  0  0  0  0  0  0  0
    4.3778   -5.3800    2.1453 C   0  0  0  0  0  0  0  0  0  0  0  0
    0.1195   -2.8661    3.0415 C   0  0  0  0  0  0  0  0  0  0  0  0
   -0.1988   -2.0751    2.1605 O   0  0  0  0  0  0  0  0  0  0  0  0
   -0.6947   -3.3061    4.0358 O   0  0  0  0  0  0  0  0  0  0  0  0
   -0.5517   -1.6158    5.7624 C   0  0  0  0  0  0  0  0  0  0  0  0
   -1.4401   -2.3056    4.7444 C   0  0  0  0  0  0  0  0  0  0  0  0
 21 22  1  0
 22 20  1  0
 20 18  1  0
 18 19  2  0
 18  1  1  0
  1  2  1  0
  2  3  2  0
  3  4  1  0
  4  5  1  0
  5  6  1  0
  6  7  1  0
  7  8  1  1
  7  9  1  0
  9 10  2  0
  9 11  1  0
 11 12  2  0
 12 13  1  0
 13 14  1  0
 13 15  2  0
 15 16  1  0
 16 17  2  0
  5  1  2  0
 17 11  1  0
 17  4  1  0
M  CHG  1   7   1
M  END
>  <minimizedAffinity>  (3) 
0.00000

>  <CNNscore>  (3) 
0.8499735594

>  <CNNaffinity>  (3) 
4.0028142929

>  <CNN_VS>  (3) 
3.4022862911

>  <CNNaffinity_variance>  (3) 
0.4831140041

$$$$

     RDKit          3D

 22 24  0  0  0  0  0  0  0  0999 V2000
   -4.3971   -1.5230   -6.8683 C   0  0  0  0  0  0  0  0  0  0  0  0
   -3.3196   -0.7020   -6.6672 N   0  0  0  0  0  0  0  0  0  0  0  0
   -2.4471   -1.4075   -5.9926 C   0  0  0  0  0  0  0  0  0  0  0  0
   -2.8782   -2.6943   -5.7388 N   0  0  0  0  0  0  0  0  0  0  0  0
   -4.1540   -2.7614   -6.2780 C   0  0  0  0  0  0  0  0  0  0  0  0
   -5.0377   -3.9313   -6.1791 C   0  0  0  0  0  0  0  0  0  0  0  0
   -4.4340   -5.1233   -6.7881 N   0  0  1  0  0  0  0  0  0  0  0  0
   -4.0020   -5.0220   -8.2086 C   0  0  0  0  0  0  0  0  0  0  0  0
   -3.4730   -5.7672   -5.9301 C   0  0  0  0  0  0  0  0  0  0  0  0
   -3.6927   -6.9626   -5.8866 O   0  0  0  0  0  0  0  0  0  0  0  0
   -2.3976   -5.0965   -5.1502 C   0  0  0  0  0  0  0  0  0  0  0  0
   -1.5735   -6.0015   -4.4446 C   0  0  0  0  0  0  0  0  0  0  0  0
   -0.5012   -5.5533   -3.6885 C   0  0  0  0  0  0  0  0  0  0  0  0
    0.2595   -6.4364   -3.0339 F   0  0  0  0  0  0  0  0  0  0  0  0
   -0.2159   -4.2057   -3.6066 C   0  0  0  0  0  0  0  0  0  0  0  0
   -1.0174   -3.2910   -4.2931 C   0  0  0  0  0  0  0  0  0  0  0  0
   -2.1203   -3.7120   -5.0756 C   0  0  0  0  0  0  0  0  0  0  0  0
   -5.5949   -1.1178   -7.6161 C   0  0  0  0  0  0  0  0  0  0  0  0
   -5.7760   -1.4649   -8.7778 O   0  0  0  0  0  0  0  0  0  0  0  0
   -6.4317   -0.3320   -6.8898 O   0  0  0  0  0  0  0  0  0  0  0  0
   -7.8767    1.3364   -7.8834 C   0  0  0  0  0  0  0  0  0  0  0  0
   -6.5159    1.0465   -7.2788 C   0  0  0  0  0  0  0  0  0  0  0  0
 21 22  1  0
 22 20  1  0
 20 18  1  0
 18 19  2  0
 18  1  1  0
  1  2  1  0
  2  3  2  0
  3  4  1  0
  4  5  1  0
  5  6  1  0
  6  7  1  0
  7  8  1  6
  7  9  1  0
  9 10  2  0
  9 11  1  0
 11 12  2  0
 12 13  1  0
 13 14  1  0
 13 15  2  0
 15 16  1  0
 16 17  2  0
  5  1  2  0
 17 11  1  0
 17  4  1  0
M  CHG  1   7   1
M  END
>  <minimizedAffinity>  (4) 
0.00000

>  <CNNscore>  (4) 
0.8492940664

>  <CNNaffinity>  (4) 
4.0339326859

>  <CNN_VS>  (4) 
3.4259951115

>  <CNNaffinity_variance>  (4) 
0.5305188894

$$$$

     RDKit          3D

 22 24  0  0  0  0  0  0  0  0999 V2000
    1.0645    1.2003   -0.7628 C   0  0  0  0  0  0  0  0  0  0  0  0
    0.1574    2.1844   -1.0529 N   0  0  0  0  0  0  0  0  0  0  0  0
    0.5461    2.7134   -2.1857 C   0  0  0  0  0  0  0  0  0  0  0  0
    1.6798    2.1139   -2.6970 N   0  0  0  0  0  0  0  0  0  0  0  0
    2.0351    1.1543   -1.7612 C   0  0  0  0  0  0  0  0  0  0  0  0
    3.2354    0.3111   -1.8498 C   0  0  0  0  0  0  0  0  0  0  0  0
    3.2409   -0.5021   -3.0725 N   0  0  1  0  0  0  0  0  0  0  0  0
    2.0681   -1.3865   -3.3117 C   0  0  0  0  0  0  0  0  0  0  0  0
    3.6633    0.2347   -4.2356 C   0  0  0  0  0  0  0  0  0  0  0  0
    4.5030   -0.4000   -4.8449 O   0  0  0  0  0  0  0  0  0  0  0  0
    3.2087    1.5952   -4.6313 C   0  0  0  0  0  0  0  0  0  0  0  0
    3.7585    2.0321   -5.8573 C   0  0  0  0  0  0  0  0  0  0  0  0
    3.4207    3.2648   -6.3946 C   0  0  0  0  0  0  0  0  0  0  0  0
    3.9583    3.6474   -7.5573 F   0  0  0  0  0  0  0  0  0  0  0  0
    2.5371    4.0971   -5.7384 C   0  0  0  0  0  0  0  0  0  0  0  0
    1.9819    3.6888   -4.5238 C   0  0  0  0  0  0  0  0  0  0  0  0
    2.3029    2.4367   -3.9450 C   0  0  0  0  0  0  0  0  0  0  0  0
    0.9724    0.3391    0.4237 C   0  0  0  0  0  0  0  0  0  0  0  0
    0.5312   -0.8029    0.3571 O   0  0  0  0  0  0  0  0  0  0  0  0
    1.4073    0.9500    1.5564 O   0  0  0  0  0  0  0  0  0  0  0  0
    0.5317    0.4057    3.7464 C   0  0  0  0  0  0  0  0  0  0  0  0
    0.4056    1.2951    2.5239 C   0  0  0  0  0  0  0  0  0  0  0  0
 21 22  1  0
 22 20  1  0
 20 18  1  0
 18 19  2  0
 18  1  1  0
  1  2  1  0
  2  3  2  0
  3  4  1  0
  4  5  1  0
  5  6  1  0
  6  7  1  0
  7  8  1  6
  7  9  1  0
  9 10  2  0
  9 11  1  0
 11 12  2  0
 12 13  1  0
 13 14  1  0
 13 15  2  0
 15 16  1  0
 16 17  2  0
  5  1  2  0
 17 11  1  0
 17  4  1  0
M  CHG  1   7   1
M  END
>  <minimizedAffinity>  (5) 
0.00000

>  <CNNscore>  (5) 
0.8486934304

>  <CNNaffinity>  (5) 
3.9843711853

>  <CNN_VS>  (5) 
3.3815095425

>  <CNNaffinity_variance>  (5) 
0.5192958117

$$$$

     RDKit          3D

 22 24  0  0  0  0  0  0  0  0999 V2000
   -0.6718   -0.5301    5.4091 C   0  0  0  0  0  0  0  0  0  0  0  0
   -0.9478    0.6639    6.0203 N   0  0  0  0  0  0  0  0  0  0  0  0
   -1.9628    1.1771    5.3719 C   0  0  0  0  0  0  0  0  0  0  0  0
   -2.4093    0.3678    4.3464 N   0  0  0  0  0  0  0  0  0  0  0  0
   -1.5545   -0.7241    4.3488 C   0  0  0  0  0  0  0  0  0  0  0  0
   -1.6039   -1.8206    3.3717 C   0  0  0  0  0  0  0  0  0  0  0  0
   -2.9026   -2.5057    3.3866 N   0  0  1  0  0  0  0  0  0  0  0  0
   -3.3697   -3.0590    4.6868 C   0  0  0  0  0  0  0  0  0  0  0  0
   -3.9203   -1.7971    2.6542 C   0  0  0  0  0  0  0  0  0  0  0  0
   -4.5002   -2.5615    1.9069 O   0  0  0  0  0  0  0  0  0  0  0  0
   -4.2073   -0.3389    2.7291 C   0  0  0  0  0  0  0  0  0  0  0  0
   -5.3069    0.0544    1.9337 C   0  0  0  0  0  0  0  0  0  0  0  0
   -5.7353    1.3727    1.9059 C   0  0  0  0  0  0  0  0  0  0  0  0
   -6.7798    1.7111    1.1433 F   0  0  0  0  0  0  0  0  0  0  0  0
   -5.0916    2.3349    2.6569 C   0  0  0  0  0  0  0  0  0  0  0  0
   -4.0005    1.9715    3.4493 C   0  0  0  0  0  0  0  0  0  0  0  0
   -3.5353    0.6349    3.5034 C   0  0  0  0  0  0  0  0  0  0  0  0
    0.3917   -1.4405    5.8545 C   0  0  0  0  0  0  0  0  0  0  0  0
    0.1389   -2.4880    6.4391 O   0  0  0  0  0  0  0  0  0  0  0  0
    1.6368   -0.9843    5.5598 O   0  0  0  0  0  0  0  0  0  0  0  0
    2.3836    0.1923    7.5389 C   0  0  0  0  0  0  0  0  0  0  0  0
    2.5954   -1.0016    6.6273 C   0  0  0  0  0  0  0  0  0  0  0  0
 21 22  1  0
 22 20  1  0
 20 18  1  0
 18 19  2  0
 18  1  1  0
  1  2  1  0
  2  3  2  0
  3  4  1  0
  4  5  1  0
  5  6  1  0
  6  7  1  0
  7  8  1  1
  7  9  1  0
  9 10  2  0
  9 11  1  0
 11 12  2  0
 12 13  1  0
 13 14  1  0
 13 15  2  0
 15 16  1  0
 16 17  2  0
  5  1  2  0
 17 11  1  0
 17  4  1  0
M  CHG  1   7   1
M  END
>  <minimizedAffinity>  (6) 
0.00000

>  <CNNscore>  (6) 
0.8478177786

>  <CNNaffinity>  (6) 
3.9754428864

>  <CNN_VS>  (6) 
3.3704512119

>  <CNNaffinity_variance>  (6) 
0.5728279948

$$$$

     RDKit          3D

 22 24  0  0  0  0  0  0  0  0999 V2000
    1.6265    4.1450   -1.0568 C   0  0  0  0  0  0  0  0  0  0  0  0
    0.6237    3.9637   -0.1419 N   0  0  0  0  0  0  0  0  0  0  0  0
    1.1113    4.3465    1.0112 C   0  0  0  0  0  0  0  0  0  0  0  0
    2.4104    4.8047    0.9192 N   0  0  0  0  0  0  0  0  0  0  0  0
    2.7566    4.6458   -0.4140 C   0  0  0  0  0  0  0  0  0  0  0  0
    4.0866    4.9357   -0.9678 C   0  0  0  0  0  0  0  0  0  0  0  0
    4.4672    6.3393   -0.7648 N   0  0  1  0  0  0  0  0  0  0  0  0
    3.5414    7.3817   -1.2855 C   0  0  0  0  0  0  0  0  0  0  0  0
    4.9548    6.6028    0.5645 C   0  0  0  0  0  0  0  0  0  0  0  0
    5.9946    7.2310    0.5067 O   0  0  0  0  0  0  0  0  0  0  0  0
    4.3392    6.1403    1.8379 C   0  0  0  0  0  0  0  0  0  0  0  0
    5.0165    6.6075    2.9864 C   0  0  0  0  0  0  0  0  0  0  0  0
    4.5634    6.2988    4.2599 C   0  0  0  0  0  0  0  0  0  0  0  0
    5.2271    6.7580    5.3257 F   0  0  0  0  0  0  0  0  0  0  0  0
    3.4362    5.5221    4.4337 C   0  0  0  0  0  0  0  0  0  0  0  0
    2.7506    5.0462    3.3140 C   0  0  0  0  0  0  0  0  0  0  0  0
    3.1834    5.3417    1.9982 C   0  0  0  0  0  0  0  0  0  0  0  0
    1.4763    3.8580   -2.4897 C   0  0  0  0  0  0  0  0  0  0  0  0
    1.3602    4.7554   -3.3168 O   0  0  0  0  0  0  0  0  0  0  0  0
    1.4692    2.5278   -2.7652 O   0  0  0  0  0  0  0  0  0  0  0  0
    0.4762    1.5801   -4.7588 C   0  0  0  0  0  0  0  0  0  0  0  0
    1.7299    2.1533   -4.1255 C   0  0  0  0  0  0  0  0  0  0  0  0
 21 22  1  0
 22 20  1  0
 20 18  1  0
 18 19  2  0
 18  1  1  0
  1  2  1  0
  2  3  2  0
  3  4  1  0
  4  5  1  0
  5  6  1  0
  6  7  1  0
  7  8  1  1
  7  9  1  0
  9 10  2  0
  9 11  1  0
 11 12  2  0
 12 13  1  0
 13 14  1  0
 13 15  2  0
 15 16  1  0
 16 17  2  0
  5  1  2  0
 17 11  1  0
 17  4  1  0
M  CHG  1   7   1
M  END
>  <minimizedAffinity>  (7) 
0.00000

>  <CNNscore>  (7) 
0.8475542068

>  <CNNaffinity>  (7) 
4.0116028786

>  <CNN_VS>  (7) 
3.4000508785

>  <CNNaffinity_variance>  (7) 
0.4615594745

$$$$

     RDKit          3D

 22 24  0  0  0  0  0  0  0  0999 V2000
   -0.5936    1.0985    1.3299 C   0  0  0  0  0  0  0  0  0  0  0  0
   -1.6037    0.2889    0.8830 N   0  0  0  0  0  0  0  0  0  0  0  0
   -2.6511    0.5796    1.6126 C   0  0  0  0  0  0  0  0  0  0  0  0
   -2.4030    1.5768    2.5347 N   0  0  0  0  0  0  0  0  0  0  0  0
   -1.0624    1.8925    2.3744 C   0  0  0  0  0  0  0  0  0  0  0  0
   -0.3315    2.8611    3.2033 C   0  0  0  0  0  0  0  0  0  0  0  0
   -0.9262    4.2016    3.1272 N   0  0  1  0  0  0  0  0  0  0  0  0
   -1.0754    4.8085    1.7766 C   0  0  0  0  0  0  0  0  0  0  0  0
   -2.0881    4.3494    3.9653 C   0  0  0  0  0  0  0  0  0  0  0  0
   -1.9987    5.3705    4.6199 O   0  0  0  0  0  0  0  0  0  0  0  0
   -3.2181    3.3885    4.0843 C   0  0  0  0  0  0  0  0  0  0  0  0
   -4.2436    3.8380    4.9460 C   0  0  0  0  0  0  0  0  0  0  0  0
   -5.3881    3.0830    5.1517 C   0  0  0  0  0  0  0  0  0  0  0  0
   -6.3400    3.5379    5.9727 F   0  0  0  0  0  0  0  0  0  0  0  0
   -5.5498    1.8681    4.5176 C   0  0  0  0  0  0  0  0  0  0  0  0
   -4.5491    1.4010    3.6628 C   0  0  0  0  0  0  0  0  0  0  0  0
   -3.3671    2.1450    3.4279 C   0  0  0  0  0  0  0  0  0  0  0  0
    0.7559    1.1040    0.7495 C   0  0  0  0  0  0  0  0  0  0  0  0
    1.1100    1.9658   -0.0473 O   0  0  0  0  0  0  0  0  0  0  0  0
    1.5219    0.0683    1.1807 O   0  0  0  0  0  0  0  0  0  0  0  0
    3.2715   -0.9082   -0.1772 C   0  0  0  0  0  0  0  0  0  0  0  0
    1.8088   -0.9597    0.2219 C   0  0  0  0  0  0  0  0  0  0  0  0
 21 22  1  0
 22 20  1  0
 20 18  1  0
 18 19  2  0
 18  1  1  0
  1  2  1  0
  2  3  2  0
  3  4  1  0
  4  5  1  0
  5  6  1  0
  6  7  1  0
  7  8  1  6
  7  9  1  0
  9 10  2  0
  9 11  1  0
 11 12  2  0
 12 13  1  0
 13 14  1  0
 13 15  2  0
 15 16  1  0
 16 17  2  0
  5  1  2  0
 17 11  1  0
 17  4  1  0
M  CHG  1   7   1
M  END
>  <minimizedAffinity>  (8) 
0.00000

>  <CNNscore>  (8) 
0.8474973440

>  <CNNaffinity>  (8) 
3.9829430580

>  <CNN_VS>  (8) 
3.3755335808

>  <CNNaffinity_variance>  (8) 
0.5077577829

$$$$

     RDKit          3D

 22 24  0  0  0  0  0  0  0  0999 V2000
    0.2270   -2.0147    3.3579 C   0  0  0  0  0  0  0  0  0  0  0  0
    1.4687   -1.8949    3.9230 N   0  0  0  0  0  0  0  0  0  0  0  0
    2.0584   -3.0510    3.7511 C   0  0  0  0  0  0  0  0  0  0  0  0
    1.2727   -3.9582    3.0686 N   0  0  0  0  0  0  0  0  0  0  0  0
    0.0742   -3.2992    2.8404 C   0  0  0  0  0  0  0  0  0  0  0  0
   -1.1011   -3.9084    2.2024 C   0  0  0  0  0  0  0  0  0  0  0  0
   -0.8006   -4.3810    0.8450 N   0  0  1  0  0  0  0  0  0  0  0  0
   -0.2463   -3.3905   -0.1176 C   0  0  0  0  0  0  0  0  0  0  0  0
   -0.1236   -5.6521    0.8294 C   0  0  0  0  0  0  0  0  0  0  0  0
   -0.6651   -6.3994    0.0373 O   0  0  0  0  0  0  0  0  0  0  0  0
    1.0290   -6.0484    1.6831 C   0  0  0  0  0  0  0  0  0  0  0  0
    1.5153   -7.3437    1.3969 C   0  0  0  0  0  0  0  0  0  0  0  0
    2.6060   -7.8652    2.0757 C   0  0  0  0  0  0  0  0  0  0  0  0
    3.0415   -9.0940    1.7797 F   0  0  0  0  0  0  0  0  0  0  0  0
    3.2419   -7.1269    3.0528 C   0  0  0  0  0  0  0  0  0  0  0  0
    2.7786   -5.8447    3.3555 C   0  0  0  0  0  0  0  0  0  0  0  0
    1.6681   -5.2791    2.6827 C   0  0  0  0  0  0  0  0  0  0  0  0
   -0.7509   -0.9194    3.3132 C   0  0  0  0  0  0  0  0  0  0  0  0
   -0.9980   -0.3195    2.2729 O   0  0  0  0  0  0  0  0  0  0  0  0
   -1.3108   -0.6599    4.5234 O   0  0  0  0  0  0  0  0  0  0  0  0
    0.0187    1.1291    5.4672 C   0  0  0  0  0  0  0  0  0  0  0  0
   -1.3400    0.7143    4.9350 C   0  0  0  0  0  0  0  0  0  0  0  0
 21 22  1  0
 22 20  1  0
 20 18  1  0
 18 19  2  0
 18  1  1  0
  1  2  1  0
  2  3  2  0
  3  4  1  0
  4  5  1  0
  5  6  1  0
  6  7  1  0
  7  8  1  1
  7  9  1  0
  9 10  2  0
  9 11  1  0
 11 12  2  0
 12 13  1  0
 13 14  1  0
 13 15  2  0
 15 16  1  0
 16 17  2  0
  5  1  2  0
 17 11  1  0
 17  4  1  0
M  CHG  1   7   1
M  END
>  <minimizedAffinity>  (9) 
0.00000

>  <CNNscore>  (9) 
0.8472695351

>  <CNNaffinity>  (9) 
4.0242280960

>  <CNN_VS>  (9) 
3.4096059799

>  <CNNaffinity_variance>  (9) 
0.5064202547

$$$$
