


 20 22  0  0  0  0  0  0  0  0999 V2000
    0.2106   -0.3704   -0.3784 C   0  0  0  0  0  0  0  0  0  0  0  0
    0.4748    0.8450    0.3805 N   0  0  0  0  0  0  0  0  0  0  0  0
    0.9908    1.9311   -0.3378 C   0  0  0  0  0  0  0  0  0  0  0  0
    1.2897    1.8483   -1.5330 O   0  0  0  0  0  0  0  0  0  0  0  0
    1.0917    3.2638    0.3915 C   0  0  0  0  0  0  0  0  0  0  0  0
    2.1550    3.1891    1.3877 N   0  0  0  0  0  0  0  0  0  0  0  0
    1.9566    2.4546    2.4299 C   0  0  0  0  0  0  0  0  0  0  0  0
    0.6829    1.7287    2.7093 C   0  0  0  0  0  0  0  0  0  0  0  0
    0.1650    1.8288    4.0144 C   0  0  0  0  0  0  0  0  0  0  0  0
   -0.9531    1.0896    4.3807 C   0  0  0  0  0  0  0  0  0  0  0  0
   -1.5709    1.2037    5.9805 Cl  0  0  0  0  0  0  0  0  0  0  0  0
   -1.5653    0.2496    3.4606 C   0  0  0  0  0  0  0  0  0  0  0  0
   -1.0686    0.1678    2.1554 C   0  0  0  0  0  0  0  0  0  0  0  0
    0.0456    0.9244    1.7429 C   0  0  0  0  0  0  0  0  0  0  0  0
    3.0823    2.3401    3.4123 C   0  0  0  0  0  0  0  0  0  0  0  0
    3.4849    3.4348    4.1884 C   0  0  0  0  0  0  0  0  0  0  0  0
    4.5373    3.2970    5.0962 C   0  0  0  0  0  0  0  0  0  0  0  0
    5.1812    2.0680    5.2394 C   0  0  0  0  0  0  0  0  0  0  0  0
    4.7703    0.9709    4.4831 C   0  0  0  0  0  0  0  0  0  0  0  0
    3.7193    1.1039    3.5744 C   0  0  0  0  0  0  0  0  0  0  0  0
  1  2  1  0
  2  3  1  0
  3  4  2  0
  3  5  1  0
  5  6  1  0
  6  7  2  0
  7 15  1  0
 15 16  2  0
 16 17  1  0
 17 18  2  0
 18 19  1  0
 19 20  2  0
  7  8  1  0
  8  9  2  0
  9 10  1  0
 10 11  1  0
 10 12  2  0
 12 13  1  0
 13 14  2  0
 14  2  1  0
 20 15  1  0
 14  8  1  0
M  END
> <minimizedAffinity>
0.00000

> <CNNscore>
0.8471164703

> <CNNaffinity>
3.8822569847

> <CNN_VS>
3.2887239456

> <CNNaffinity_variance>
0.5246836543

$$$$



 20 22  0  0  0  0  0  0  0  0999 V2000
    2.2335    0.1222    1.3561 C   0  0  0  0  0  0  0  0  0  0  0  0
    2.4978    1.3376    2.1150 N   0  0  0  0  0  0  0  0  0  0  0  0
    3.0137    2.4237    1.3967 C   0  0  0  0  0  0  0  0  0  0  0  0
    3.3127    2.3409    0.2015 O   0  0  0  0  0  0  0  0  0  0  0  0
    3.1147    3.7563    2.1260 C   0  0  0  0  0  0  0  0  0  0  0  0
    4.1780    3.6817    3.1222 N   0  0  0  0  0  0  0  0  0  0  0  0
    3.9796    2.9472    4.1644 C   0  0  0  0  0  0  0  0  0  0  0  0
    2.7059    2.2213    4.4438 C   0  0  0  0  0  0  0  0  0  0  0  0
    2.1880    2.3214    5.7489 C   0  0  0  0  0  0  0  0  0  0  0  0
    1.0698    1.5821    6.1152 C   0  0  0  0  0  0  0  0  0  0  0  0
    0.4521    1.6963    7.7150 Cl  0  0  0  0  0  0  0  0  0  0  0  0
    0.4577    0.7422    5.1951 C   0  0  0  0  0  0  0  0  0  0  0  0
    0.9544    0.6604    3.8899 C   0  0  0  0  0  0  0  0  0  0  0  0
    2.0685    1.4170    3.4774 C   0  0  0  0  0  0  0  0  0  0  0  0
    5.1053    2.8327    5.1468 C   0  0  0  0  0  0  0  0  0  0  0  0
    5.5079    3.9274    5.9229 C   0  0  0  0  0  0  0  0  0  0  0  0
    6.5602    3.7896    6.8307 C   0  0  0  0  0  0  0  0  0  0  0  0
    7.2042    2.5606    6.9739 C   0  0  0  0  0  0  0  0  0  0  0  0
    6.7933    1.4635    6.2176 C   0  0  0  0  0  0  0  0  0  0  0  0
    5.7422    1.5965    5.3089 C   0  0  0  0  0  0  0  0  0  0  0  0
  1  2  1  0
  2  3  1  0
  3  4  2  0
  3  5  1  0
  5  6  1  0
  6  7  2  0
  7 15  1  0
 15 16  2  0
 16 17  1  0
 17 18  2  0
 18 19  1  0
 19 20  2  0
  7  8  1  0
  8  9  2  0
  9 10  1  0
 10 11  1  0
 10 12  2  0
 12 13  1  0
 13 14  2  0
 14  2  1  0
 20 15  1  0
 14  8  1  0
M  END
> <minimizedAffinity>
0.00000

> <CNNscore>
0.8471164703

> <CNNaffinity>
3.8822569847

> <CNN_VS>
3.2887239456

> <CNNaffinity_variance>
0.5246831179

$$$$



 20 22  0  0  0  0  0  0  0  0999 V2000
    2.3127   -1.4356    1.5269 C   0  0  0  0  0  0  0  0  0  0  0  0
    1.7668   -0.5675    2.5620 N   0  0  0  0  0  0  0  0  0  0  0  0
    1.0603    0.5598    2.1242 C   0  0  0  0  0  0  0  0  0  0  0  0
    0.9709    0.8585    0.9293 O   0  0  0  0  0  0  0  0  0  0  0  0
    0.3203    1.3710    3.1789 C   0  0  0  0  0  0  0  0  0  0  0  0
    1.2882    2.0800    4.0090 N   0  0  0  0  0  0  0  0  0  0  0  0
    2.0100    1.3859    4.8228 C   0  0  0  0  0  0  0  0  0  0  0  0
    1.8709   -0.0878    5.0128 C   0  0  0  0  0  0  0  0  0  0  0  0
    1.8466   -0.5604    6.3385 C   0  0  0  0  0  0  0  0  0  0  0  0
    1.8346   -1.9264    6.5930 C   0  0  0  0  0  0  0  0  0  0  0  0
    1.8215   -2.4972    8.2141 Cl  0  0  0  0  0  0  0  0  0  0  0  0
    1.8454   -2.8314    5.5405 C   0  0  0  0  0  0  0  0  0  0  0  0
    1.8432   -2.3648    4.2217 C   0  0  0  0  0  0  0  0  0  0  0  0
    1.8270   -0.9872    3.9283 C   0  0  0  0  0  0  0  0  0  0  0  0
    3.0414    2.1219    5.6228 C   0  0  0  0  0  0  0  0  0  0  0  0
    4.4105    1.9059    5.4193 C   0  0  0  0  0  0  0  0  0  0  0  0
    5.3481    2.6077    6.1802 C   0  0  0  0  0  0  0  0  0  0  0  0
    4.9238    3.5316    7.1350 C   0  0  0  0  0  0  0  0  0  0  0  0
    3.5623    3.7640    7.3266 C   0  0  0  0  0  0  0  0  0  0  0  0
    2.6216    3.0649    6.5687 C   0  0  0  0  0  0  0  0  0  0  0  0
  1  2  1  0
  2  3  1  0
  3  4  2  0
  3  5  1  0
  5  6  1  0
  6  7  2  0
  7 15  1  0
 15 16  2  0
 16 17  1  0
 17 18  2  0
 18 19  1  0
 19 20  2  0
  7  8  1  0
  8  9  2  0
  9 10  1  0
 10 11  1  0
 10 12  2  0
 12 13  1  0
 13 14  2  0
 14  2  1  0
 20 15  1  0
 14  8  1  0
M  END
> <minimizedAffinity>
0.00000

> <CNNscore>
0.8454301953

> <CNNaffinity>
3.9583687782

> <CNN_VS>
3.3465244770

> <CNNaffinity_variance>
0.4923815131

$$$$



 20 22  0  0  0  0  0  0  0  0999 V2000
   -1.1619    0.4779   -8.1733 C   0  0  0  0  0  0  0  0  0  0  0  0
   -0.0309    1.0011   -7.4182 N   0  0  0  0  0  0  0  0  0  0  0  0
   -0.3225    1.5829   -6.1779 C   0  0  0  0  0  0  0  0  0  0  0  0
   -1.4803    1.7272   -5.7736 O   0  0  0  0  0  0  0  0  0  0  0  0
    0.8562    1.9592   -5.2907 C   0  0  0  0  0  0  0  0  0  0  0  0
    1.5465    3.1079   -5.8674 N   0  0  0  0  0  0  0  0  0  0  0  0
    2.2193    2.9264   -6.9534 C   0  0  0  0  0  0  0  0  0  0  0  0
    2.3869    1.6016   -7.6198 C   0  0  0  0  0  0  0  0  0  0  0  0
    3.6868    1.2573   -8.0365 C   0  0  0  0  0  0  0  0  0  0  0  0
    3.9015    0.0934   -8.7646 C   0  0  0  0  0  0  0  0  0  0  0  0
    5.4885   -0.3131   -9.2844 Cl  0  0  0  0  0  0  0  0  0  0  0  0
    2.8349   -0.7357   -9.0836 C   0  0  0  0  0  0  0  0  0  0  0  0
    1.5459   -0.4096   -8.6487 C   0  0  0  0  0  0  0  0  0  0  0  0
    1.2974    0.7475   -7.8850 C   0  0  0  0  0  0  0  0  0  0  0  0
    2.8708    4.1291   -7.5654 C   0  0  0  0  0  0  0  0  0  0  0  0
    2.6575    5.4139   -7.0492 C   0  0  0  0  0  0  0  0  0  0  0  0
    3.2794    6.5155   -7.6409 C   0  0  0  0  0  0  0  0  0  0  0  0
    4.1214    6.3376   -8.7385 C   0  0  0  0  0  0  0  0  0  0  0  0
    4.3519    5.0581   -9.2428 C   0  0  0  0  0  0  0  0  0  0  0  0
    3.7325    3.9542   -8.6549 C   0  0  0  0  0  0  0  0  0  0  0  0
  1  2  1  0
  2  3  1  0
  3  4  2  0
  3  5  1  0
  5  6  1  0
  6  7  2  0
  7 15  1  0
 15 16  2  0
 16 17  1  0
 17 18  2  0
 18 19  1  0
 19 20  2  0
  7  8  1  0
  8  9  2  0
  9 10  1  0
 10 11  1  0
 10 12  2  0
 12 13  1  0
 13 14  2  0
 14  2  1  0
 20 15  1  0
 14  8  1  0
M  END
> <minimizedAffinity>
0.00000

> <CNNscore>
0.8454141617

> <CNNaffinity>
3.8807518482

> <CNN_VS>
3.2808425426

> <CNNaffinity_variance>
0.5412713885

$$$$



 20 22  0  0  0  0  0  0  0  0999 V2000
    1.8333    0.6119    5.4537 C   0  0  0  0  0  0  0  0  0  0  0  0
    3.2842    0.7451    5.4686 N   0  0  0  0  0  0  0  0  0  0  0  0
    3.8628    1.1473    6.6790 C   0  0  0  0  0  0  0  0  0  0  0  0
    3.1842    1.4574    7.6629 O   0  0  0  0  0  0  0  0  0  0  0  0
    5.3819    1.1059    6.7725 C   0  0  0  0  0  0  0  0  0  0  0  0
    5.9451    2.1677    5.9455 N   0  0  0  0  0  0  0  0  0  0  0  0
    5.8635    2.0436    4.6638 C   0  0  0  0  0  0  0  0  0  0  0  0
    5.2860    0.8517    3.9757 C   0  0  0  0  0  0  0  0  0  0  0  0
    6.0180    0.3217    2.8964 C   0  0  0  0  0  0  0  0  0  0  0  0
    5.4897   -0.7144    2.1360 C   0  0  0  0  0  0  0  0  0  0  0  0
    6.3813   -1.3462    0.8094 Cl  0  0  0  0  0  0  0  0  0  0  0  0
    4.2377   -1.2322    2.4380 C   0  0  0  0  0  0  0  0  0  0  0  0
    3.5191   -0.7252    3.5260 C   0  0  0  0  0  0  0  0  0  0  0  0
    4.0372    0.3052    4.3345 C   0  0  0  0  0  0  0  0  0  0  0  0
    6.3915    3.1717    3.8307 C   0  0  0  0  0  0  0  0  0  0  0  0
    5.5374    3.9613    3.0499 C   0  0  0  0  0  0  0  0  0  0  0  0
    6.0592    5.0064    2.2843 C   0  0  0  0  0  0  0  0  0  0  0  0
    7.4283    5.2723    2.3043 C   0  0  0  0  0  0  0  0  0  0  0  0
    8.2790    4.5012    3.0956 C   0  0  0  0  0  0  0  0  0  0  0  0
    7.7621    3.4556    3.8622 C   0  0  0  0  0  0  0  0  0  0  0  0
  1  2  1  0
  2  3  1  0
  3  4  2  0
  3  5  1  0
  5  6  1  0
  6  7  2  0
  7 15  1  0
 15 16  2  0
 16 17  1  0
 17 18  2  0
 18 19  1  0
 19 20  2  0
  7  8  1  0
  8  9  2  0
  9 10  1  0
 10 11  1  0
 10 12  2  0
 12 13  1  0
 13 14  2  0
 14  2  1  0
 20 15  1  0
 14  8  1  0
M  END
> <minimizedAffinity>
0.00000

> <CNNscore>
0.8452740908

> <CNNaffinity>
3.8776717186

> <CNN_VS>
3.2776954174

> <CNNaffinity_variance>
0.5091111660

$$$$



 20 22  0  0  0  0  0  0  0  0999 V2000
    1.7555    0.3643   -0.9354 C   0  0  0  0  0  0  0  0  0  0  0  0
    2.3119    1.6214   -0.4526 N   0  0  0  0  0  0  0  0  0  0  0  0
    2.6327    2.5775   -1.4246 C   0  0  0  0  0  0  0  0  0  0  0  0
    2.5336    2.3470   -2.6336 O   0  0  0  0  0  0  0  0  0  0  0  0
    3.0314    3.9627   -0.9342 C   0  0  0  0  0  0  0  0  0  0  0  0
    4.3493    3.8933   -0.3122 N   0  0  0  0  0  0  0  0  0  0  0  0
    4.4508    3.2895    0.8237 C   0  0  0  0  0  0  0  0  0  0  0  0
    3.2931    2.7145    1.5697 C   0  0  0  0  0  0  0  0  0  0  0  0
    3.2205    2.9933    2.9476 C   0  0  0  0  0  0  0  0  0  0  0  0
    2.2370    2.3998    3.7294 C   0  0  0  0  0  0  0  0  0  0  0  0
    2.1637    2.7315    5.4142 Cl  0  0  0  0  0  0  0  0  0  0  0  0
    1.3206    1.5298    3.1546 C   0  0  0  0  0  0  0  0  0  0  0  0
    1.3741    1.2710    1.7809 C   0  0  0  0  0  0  0  0  0  0  0  0
    2.3402    1.8775    0.9546 C   0  0  0  0  0  0  0  0  0  0  0  0
    5.8213    3.1736    1.4184 C   0  0  0  0  0  0  0  0  0  0  0  0
    6.4515    1.9302    1.5573 C   0  0  0  0  0  0  0  0  0  0  0  0
    7.7297    1.8542    2.1149 C   0  0  0  0  0  0  0  0  0  0  0  0
    8.3847    3.0158    2.5238 C   0  0  0  0  0  0  0  0  0  0  0  0
    7.7689    4.2573    2.3688 C   0  0  0  0  0  0  0  0  0  0  0  0
    6.4914    4.3381    1.8124 C   0  0  0  0  0  0  0  0  0  0  0  0
  1  2  1  0
  2  3  1  0
  3  4  2  0
  3  5  1  0
  5  6  1  0
  6  7  2  0
  7 15  1  0
 15 16  2  0
 16 17  1  0
 17 18  2  0
 18 19  1  0
 19 20  2  0
  7  8  1  0
  8  9  2  0
  9 10  1  0
 10 11  1  0
 10 12  2  0
 12 13  1  0
 13 14  2  0
 14  2  1  0
 20 15  1  0
 14  8  1  0
M  END
> <minimizedAffinity>
0.00000

> <CNNscore>
0.8446344733

> <CNNaffinity>
3.9109058380

> <CNN_VS>
3.3032858372

> <CNNaffinity_variance>
0.5067746043

$$$$



 20 22  0  0  0  0  0  0  0  0999 V2000
    0.7545    3.5826    7.4676 C   0  0  0  0  0  0  0  0  0  0  0  0
   -0.0294    3.2191    6.2944 N   0  0  0  0  0  0  0  0  0  0  0  0
   -0.7498    4.2509    5.6794 C   0  0  0  0  0  0  0  0  0  0  0  0
   -0.7939    5.3931    6.1465 O   0  0  0  0  0  0  0  0  0  0  0  0
   -1.4168    3.9367    4.3473 C   0  0  0  0  0  0  0  0  0  0  0  0
   -2.5469    3.0419    4.5731 N   0  0  0  0  0  0  0  0  0  0  0  0
   -2.2945    1.8231    4.9134 C   0  0  0  0  0  0  0  0  0  0  0  0
   -0.9186    1.2563    5.0279 C   0  0  0  0  0  0  0  0  0  0  0  0
   -0.6964   -0.0024    4.4380 C   0  0  0  0  0  0  0  0  0  0  0  0
    0.5250   -0.6445    4.6015 C   0  0  0  0  0  0  0  0  0  0  0  0
    0.7845   -2.1885    3.8925 Cl  0  0  0  0  0  0  0  0  0  0  0  0
    1.5322   -0.0468    5.3466 C   0  0  0  0  0  0  0  0  0  0  0  0
    1.3235    1.2155    5.9122 C   0  0  0  0  0  0  0  0  0  0  0  0
    0.1079    1.9064    5.7425 C   0  0  0  0  0  0  0  0  0  0  0  0
   -3.4665    0.9349    5.2013 C   0  0  0  0  0  0  0  0  0  0  0  0
   -4.3408    0.5313    4.1838 C   0  0  0  0  0  0  0  0  0  0  0  0
   -5.4243   -0.2976    4.4830 C   0  0  0  0  0  0  0  0  0  0  0  0
   -5.6313   -0.7332    5.7918 C   0  0  0  0  0  0  0  0  0  0  0  0
   -4.7519   -0.3498    6.8038 C   0  0  0  0  0  0  0  0  0  0  0  0
   -3.6679    0.4786    6.5095 C   0  0  0  0  0  0  0  0  0  0  0  0
  1  2  1  0
  2  3  1  0
  3  4  2  0
  3  5  1  0
  5  6  1  0
  6  7  2  0
  7 15  1  0
 15 16  2  0
 16 17  1  0
 17 18  2  0
 18 19  1  0
 19 20  2  0
  7  8  1  0
  8  9  2  0
  9 10  1  0
 10 11  1  0
 10 12  2  0
 12 13  1  0
 13 14  2  0
 14  2  1  0
 20 15  1  0
 14  8  1  0
M  END
> <minimizedAffinity>
0.00000

> <CNNscore>
0.8440936804

> <CNNaffinity>
3.9024474621

> <CNN_VS>
3.2940311432

> <CNNaffinity_variance>
0.6209267974

$$$$



 20 22  0  0  0  0  0  0  0  0999 V2000
    0.2026    0.3751    6.3890 C   0  0  0  0  0  0  0  0  0  0  0  0
    1.4916    1.0510    6.4574 N   0  0  0  0  0  0  0  0  0  0  0  0
    1.8284    1.6323    7.6864 C   0  0  0  0  0  0  0  0  0  0  0  0
    1.0471    1.6515    8.6424 O   0  0  0  0  0  0  0  0  0  0  0  0
    3.2440    2.1720    7.8370 C   0  0  0  0  0  0  0  0  0  0  0  0
    3.3901    3.3758    7.0257 N   0  0  0  0  0  0  0  0  0  0  0  0
    3.4091    3.2415    5.7425 C   0  0  0  0  0  0  0  0  0  0  0  0
    3.3552    1.9258    5.0401 C   0  0  0  0  0  0  0  0  0  0  0  0
    4.2731    1.7244    3.9920 C   0  0  0  0  0  0  0  0  0  0  0  0
    4.2078    0.5722    3.2181 C   0  0  0  0  0  0  0  0  0  0  0  0
    5.3211    0.3398    1.9294 Cl  0  0  0  0  0  0  0  0  0  0  0  0
    3.2375   -0.3864    3.4760 C   0  0  0  0  0  0  0  0  0  0  0  0
    2.3404   -0.2013    4.5333 C   0  0  0  0  0  0  0  0  0  0  0  0
    2.3966    0.9415    5.3549 C   0  0  0  0  0  0  0  0  0  0  0  0
    3.4976    4.4932    4.9235 C   0  0  0  0  0  0  0  0  0  0  0  0
    2.4365    4.9049    4.1068 C   0  0  0  0  0  0  0  0  0  0  0  0
    2.5484    6.0768    3.3554 C   0  0  0  0  0  0  0  0  0  0  0  0
    3.7111    6.8442    3.4251 C   0  0  0  0  0  0  0  0  0  0  0  0
    4.7617    6.4482    4.2521 C   0  0  0  0  0  0  0  0  0  0  0  0
    4.6545    5.2776    5.0047 C   0  0  0  0  0  0  0  0  0  0  0  0
  1  2  1  0
  2  3  1  0
  3  4  2  0
  3  5  1  0
  5  6  1  0
  6  7  2  0
  7 15  1  0
 15 16  2  0
 16 17  1  0
 17 18  2  0
 18 19  1  0
 19 20  2  0
  7  8  1  0
  8  9  2  0
  9 10  1  0
 10 11  1  0
 10 12  2  0
 12 13  1  0
 13 14  2  0
 14  2  1  0
 20 15  1  0
 14  8  1  0
M  END
> <minimizedAffinity>
0.00000

> <CNNscore>
0.8436904550

> <CNNaffinity>
3.9010276794

> <CNN_VS>
3.2912597656

> <CNNaffinity_variance>
0.5835787058

$$$$



 20 22  0  0  0  0  0  0  0  0999 V2000
    1.0495    1.8052   -4.6832 C   0  0  0  0  0  0  0  0  0  0  0  0
    0.9762    1.4308   -3.2770 N   0  0  0  0  0  0  0  0  0  0  0  0
   -0.2779    1.5453   -2.6640 C   0  0  0  0  0  0  0  0  0  0  0  0
   -1.2571    2.0174   -3.2497 O   0  0  0  0  0  0  0  0  0  0  0  0
   -0.4200    0.9796   -1.2576 C   0  0  0  0  0  0  0  0  0  0  0  0
    0.3127    1.8253   -0.3213 N   0  0  0  0  0  0  0  0  0  0  0  0
    1.6020    1.8044   -0.3692 C   0  0  0  0  0  0  0  0  0  0  0  0
    2.3893    0.9216   -1.2792 C   0  0  0  0  0  0  0  0  0  0  0  0
    3.4768    0.2299   -0.7131 C   0  0  0  0  0  0  0  0  0  0  0  0
    4.3240   -0.5199   -1.5199 C   0  0  0  0  0  0  0  0  0  0  0  0
    5.6596   -1.3488   -0.8250 Cl  0  0  0  0  0  0  0  0  0  0  0  0
    4.1008   -0.5912   -2.8881 C   0  0  0  0  0  0  0  0  0  0  0  0
    3.0058    0.0738   -3.4500 C   0  0  0  0  0  0  0  0  0  0  0  0
    2.1114    0.8194   -2.6574 C   0  0  0  0  0  0  0  0  0  0  0  0
    2.3374    2.7247    0.5569 C   0  0  0  0  0  0  0  0  0  0  0  0
    2.3280    2.5220    1.9431 C   0  0  0  0  0  0  0  0  0  0  0  0
    3.0236    3.3965    2.7808 C   0  0  0  0  0  0  0  0  0  0  0  0
    3.7371    4.4654    2.2387 C   0  0  0  0  0  0  0  0  0  0  0  0
    3.7653    4.6589    0.8580 C   0  0  0  0  0  0  0  0  0  0  0  0
    3.0714    3.7876    0.0169 C   0  0  0  0  0  0  0  0  0  0  0  0
  1  2  1  0
  2  3  1  0
  3  4  2  0
  3  5  1  0
  5  6  1  0
  6  7  2  0
  7 15  1  0
 15 16  2  0
 16 17  1  0
 17 18  2  0
 18 19  1  0
 19 20  2  0
  7  8  1  0
  8  9  2  0
  9 10  1  0
 10 11  1  0
 10 12  2  0
 12 13  1  0
 13 14  2  0
 14  2  1  0
 20 15  1  0
 14  8  1  0
M  END
> <minimizedAffinity>
0.00000

> <CNNscore>
0.8432146907

> <CNNaffinity>
3.8962922096

> <CNN_VS>
3.2854108810

> <CNNaffinity_variance>
0.4600469172

$$$$
