
     RDKit          3D

 22 24  0  0  0  0  0  0  0  0999 V2000
    1.7080    5.4410    0.2610 C   0  0  0  0  0  0  0  0  0  0  0  0
    0.2040    5.2090    0.3830 C   0  0  0  0  0  0  0  0  0  0  0  0
   -0.0870    3.8020    0.2050 O   0  0  0  0  0  0  0  0  0  0  0  0
   -0.3120    3.0740    1.3140 C   0  0  0  0  0  0  0  0  0  0  0  0
   -0.1720    3.5790    2.4070 O   0  0  0  0  0  0  0  0  0  0  0  0
   -0.7300    1.6700    1.2050 C   0  0  0  0  0  0  0  0  0  0  0  0
   -0.0550    0.6570    0.6020 N   0  0  0  0  0  0  0  0  0  0  0  0
    1.2900    0.7580   -0.0530 C   0  0  0  0  0  0  0  0  0  0  0  0
    1.2470    0.2360   -1.4180 N   0  0  0  0  0  0  0  0  0  0  0  0
    0.7590   -0.9610   -1.7480 C   0  0  0  0  0  0  0  0  0  0  0  0
    0.8000   -1.2540   -2.9240 C   0  0  0  0  0  0  0  0  0  0  0  0
    0.1830   -1.9900   -0.8850 N   0  0  2  0  0  0  0  0  0  0  0  0
   -0.5300   -1.7370    0.2800 C   0  0  0  0  0  0  0  0  0  0  0  0
   -0.8060   -0.4560    0.7380 C   0  0  0  0  0  0  0  0  0  0  0  0
   -1.9330   -0.1100    1.4010 O   0  0  0  0  0  0  0  0  0  0  0  0
   -1.8880    1.1530    1.6750 C   0  0  0  0  0  0  0  0  0  0  0  0
   -1.0370   -2.7850    1.0320 C   0  0  0  0  0  0  0  0  0  0  0  0
   -0.8230   -4.0850    0.6430 C   0  0  0  0  0  0  0  0  0  0  0  0
   -0.1050   -4.3500   -0.5070 F   0  0  0  0  0  0  0  0  0  0  0  0
    0.3960   -3.3210   -1.2670 C   0  0  0  0  0  0  0  0  0  0  0  0
    1.7890    1.1010   -2.4600 C   0  0  0  0  0  0  0  0  0  0  0  0
    0.1010   -5.6300   -0.8820 C   0  0  0  0  0  0  0  0  0  0  0  0
  1  2  1  0
  2  3  1  0
  3  4  1  0
  4  5  2  0
  4  6  1  0
  6  7  1  0
  7  8  2  0
  8  9  1  0
  9 10  1  0
 10 11  1  0
 11 12  1  0
 12 13  1  1
 12 14  1  0
 14 15  2  0
 14 16  1  0
 16 17  2  0
 17 18  1  0
 18 19  1  0
 18 20  2  0
 20 21  1  0
 21 22  2  0
 10  6  2  0
 22 16  1  0
 22  9  1  0
M  CHG  1  12   1
M  END
$$$$
