
     RDKit          3D

 22 24  0  0  0  0  0  0  0  0999 V2000
  134.5280  151.9300  125.9480 C   0  0  0  0  0  0  0  0  0  0  0  0
  134.3590  150.5770  126.6340 C   0  0  0  0  0  0  0  0  0  0  0  0
  135.2550  149.6110  126.0330 O   0  0  0  0  0  0  0  0  0  0  0  0
  136.3920  149.3300  126.6960 C   0  0  0  0  0  0  0  0  0  0  0  0
  136.6750  149.9470  127.6990 O   0  0  0  0  0  0  0  0  0  0  0  0
  137.2900  148.2750  126.2080 C   0  0  0  0  0  0  0  0  0  0  0  0
  137.9070  148.2160  124.9990 C   0  0  0  0  0  0  0  0  0  0  0  0
  137.8250  149.2470  123.9130 C   0  0  0  0  0  0  0  0  0  0  0  0
  137.4250  148.6400  122.6450 N   0  0  0  0  0  0  0  0  0  0  0  0
  138.0170  147.5740  122.1040 C   0  0  0  0  0  0  0  0  0  0  0  0
  137.5740  147.1920  121.0420 O   0  0  0  0  0  0  0  0  0  0  0  0
  139.1450  146.7930  122.6080 C   0  0  0  0  0  0  0  0  0  0  0  0
  139.4260  146.5860  123.9520 C   0  0  0  0  0  0  0  0  0  0  0  0
  138.6310  147.0770  124.9780 N   0  0  0  0  0  0  0  0  0  0  0  0
  138.4350  146.4470  126.1590 C   0  0  0  0  0  0  0  0  0  0  0  0
  137.6370  147.1580  126.8870 N   0  0  0  0  0  0  0  0  0  0  0  0
  140.5240  145.8280  124.3290 C   0  0  0  0  0  0  0  0  0  0  0  0
  141.3560  145.2920  123.3770 C   0  0  0  0  0  0  0  0  0  0  0  0
  141.0940  145.5010  122.0370 C   0  0  0  0  0  0  0  0  0  0  0  0
  140.0050  146.2420  121.6480 C   0  0  0  0  0  0  0  0  0  0  0  0
  136.3090  149.2710  121.9480 C   0  0  0  0  0  0  0  0  0  0  0  0
  141.9170  144.9710  121.1080 F   0  0  0  0  0  0  0  0  0  0  0  0
  2  1  1  0
  3  2  1  0
  4  3  1  0
  5  4  1  0
  6  4  1  0
  7  6  1  0
  8  7  1  0
  9  8  1  0
 10  9  1  0
 11 10  1  0
 12 10  1  0
 13 12  1  0
 14 13  1  0
 14  7  1  0
 15 14  1  0
 16 15  1  0
 16  6  1  0
 17 13  1  0
 18 17  1  0
 19 18  1  0
 20 19  1  0
 20 12  1  0
 21  9  1  0
 22 19  1  0
M  END
$$$$
