docosanyl_ferulate_conf1.sdf
     RDKit          3D

 36 36  0  0  0  0  0  0  0  0999 V2000
  -13.0320   22.2923   -3.3362 C   0  0  0  0  0  0  0  0  0  0  0  0
  -12.5793   21.0490   -4.0403 C   0  0  0  0  0  0  0  0  0  0  0  0
  -11.4650   20.3615   -3.2458 C   0  0  0  0  0  0  0  0  0  0  0  0
  -10.9991   19.1083   -3.9425 C   0  0  0  0  0  0  0  0  0  0  0  0
   -9.8885   18.4686   -3.1021 C   0  0  0  0  0  0  0  0  0  0  0  0
   -9.3947   17.2099   -3.7662 C   0  0  0  0  0  0  0  0  0  0  0  0
   -8.2837   16.5549   -2.9415 C   0  0  0  0  0  0  0  0  0  0  0  0
   -7.7821   15.3030   -3.5879 C   0  0  0  0  0  0  0  0  0  0  0  0
   -6.6891   14.6024   -2.8365 C   0  0  0  0  0  0  0  0  0  0  0  0
   -6.1992   13.3478   -3.5017 C   0  0  0  0  0  0  0  0  0  0  0  0
   -5.1042   12.7619   -2.6253 C   0  0  0  0  0  0  0  0  0  0  0  0
   -4.5378   11.4913   -3.2029 C   0  0  0  0  0  0  0  0  0  0  0  0
   -3.4572   10.8997   -2.3522 C   0  0  0  0  0  0  0  0  0  0  0  0
   -2.9016    9.6122   -2.9624 C   0  0  0  0  0  0  0  0  0  0  0  0
   -1.8320    9.1310   -2.0093 C   0  0  0  0  0  0  0  0  0  0  0  0
   -1.1859    7.8676   -2.4699 C   0  0  0  0  0  0  0  0  0  0  0  0
   -0.1237    7.3879   -1.5253 C   0  0  0  0  0  0  0  0  0  0  0  0
    0.4888    6.0781   -2.0815 C   0  0  0  0  0  0  0  0  0  0  0  0
    1.5396    5.6328   -1.1158 C   0  0  0  0  0  0  0  0  0  0  0  0
    2.2241    4.3955   -1.4960 C   0  0  0  0  0  0  0  0  0  0  0  0
    3.2849    3.7668   -0.7121 C   0  0  0  0  0  0  0  0  0  0  0  0
    3.9524    2.5225   -1.1230 C   0  0  0  0  0  0  0  0  0  0  0  0
    4.9379    2.1768   -0.1407 O   0  0  0  0  0  0  0  0  0  0  0  0
    5.6201    1.0357   -0.4185 C   0  0  0  0  0  0  0  0  0  0  0  0
    5.4639    0.3228   -1.3961 O   0  0  0  0  0  0  0  0  0  0  0  0
    6.5883    0.8100    0.6709 C   0  0  0  0  0  0  0  0  0  0  0  0
    7.3983   -0.2586    0.6467 C   0  0  0  0  0  0  0  0  0  0  0  0
    8.3755   -0.5575    1.7020 C   0  0  0  0  0  0  0  0  0  0  0  0
    9.1056    0.4274    2.3535 C   0  0  0  0  0  0  0  0  0  0  0  0
   10.0384    0.0763    3.3405 C   0  0  0  0  0  0  0  0  0  0  0  0
   10.3204   -1.2508    3.7405 C   0  0  0  0  0  0  0  0  0  0  0  0
   11.1871   -1.4473    4.6606 O   0  0  0  0  0  0  0  0  0  0  0  0
    9.5730   -2.2368    3.0372 C   0  0  0  0  0  0  0  0  0  0  0  0
    9.6195   -3.6110    3.1831 O   0  0  0  0  0  0  0  0  0  0  0  0
   10.5553   -4.1481    4.1039 C   0  0  0  0  0  0  0  0  0  0  0  0
    8.6305   -1.8848    2.0427 C   0  0  0  0  0  0  0  0  0  0  0  0
  1  2  1  0
  2  3  1  0
  3  4  1  0
  4  5  1  0
  5  6  1  0
  6  7  1  0
  7  8  1  0
  8  9  1  0
  9 10  1  0
 10 11  1  0
 11 12  1  0
 12 13  1  0
 13 14  1  0
 14 15  1  0
 15 16  1  0
 16 17  1  0
 17 18  1  0
 18 19  1  0
 19 20  1  0
 20 21  1  0
 21 22  1  0
 22 23  1  0
 23 24  1  0
 24 25  2  0
 24 26  1  0
 26 27  2  0
 27 28  1  0
 28 29  2  0
 29 30  1  0
 30 31  2  0
 31 32  1  0
 31 33  1  0
 33 34  1  0
 34 35  1  0
 33 36  2  0
 36 28  1  0
M  CHG  1  32  -1
M  END
$$$$
docosanyl_ferulate_conf2.sdf
     RDKit          3D

 36 36  0  0  0  0  0  0  0  0999 V2000
    2.9062   27.8890    5.1973 C   0  0  0  0  0  0  0  0  0  0  0  0
    3.8751   26.8184    4.7952 C   0  0  0  0  0  0  0  0  0  0  0  0
    3.1434   25.4903    4.5793 C   0  0  0  0  0  0  0  0  0  0  0  0
    4.1061   24.4031    4.1742 C   0  0  0  0  0  0  0  0  0  0  0  0
    3.3171   23.1045    3.9738 C   0  0  0  0  0  0  0  0  0  0  0  0
    4.2459   21.9903    3.5670 C   0  0  0  0  0  0  0  0  0  0  0  0
    3.4763   20.6830    3.3617 C   0  0  0  0  0  0  0  0  0  0  0  0
    4.3849   19.5661    2.9572 C   0  0  0  0  0  0  0  0  0  0  0  0
    3.7018   18.2490    2.7368 C   0  0  0  0  0  0  0  0  0  0  0  0
    4.6310   17.1405    2.3314 C   0  0  0  0  0  0  0  0  0  0  0  0
    3.7941   15.8848    2.1484 C   0  0  0  0  0  0  0  0  0  0  0  0
    4.6323   14.7023    1.7383 C   0  0  0  0  0  0  0  0  0  0  0  0
    3.8241   13.4558    1.5533 C   0  0  0  0  0  0  0  0  0  0  0  0
    4.7000   12.2732    1.1377 C   0  0  0  0  0  0  0  0  0  0  0  0
    3.7630   11.0969    0.9887 C   0  0  0  0  0  0  0  0  0  0  0  0
    4.4746    9.8505    0.5814 C   0  0  0  0  0  0  0  0  0  0  0  0
    3.5465    8.6813    0.4329 C   0  0  0  0  0  0  0  0  0  0  0  0
    4.3684    7.4379    0.0103 C   0  0  0  0  0  0  0  0  0  0  0  0
    3.4118    6.2974   -0.1271 C   0  0  0  0  0  0  0  0  0  0  0  0
    4.0328    5.0328   -0.5254 C   0  0  0  0  0  0  0  0  0  0  0  0
    3.3025    3.7825   -0.7227 C   0  0  0  0  0  0  0  0  0  0  0  0
    3.9576    2.5284   -1.1234 C   0  0  0  0  0  0  0  0  0  0  0  0
    4.9399    2.1781   -0.1404 O   0  0  0  0  0  0  0  0  0  0  0  0
    5.6204    1.0363   -0.4184 C   0  0  0  0  0  0  0  0  0  0  0  0
    5.4636    0.3237   -1.3961 O   0  0  0  0  0  0  0  0  0  0  0  0
    6.5884    0.8101    0.6711 C   0  0  0  0  0  0  0  0  0  0  0  0
    7.3984   -0.2586    0.6467 C   0  0  0  0  0  0  0  0  0  0  0  0
    8.3755   -0.5575    1.7020 C   0  0  0  0  0  0  0  0  0  0  0  0
    9.1055    0.4274    2.3535 C   0  0  0  0  0  0  0  0  0  0  0  0
   10.0384    0.0763    3.3405 C   0  0  0  0  0  0  0  0  0  0  0  0
   10.3204   -1.2508    3.7405 C   0  0  0  0  0  0  0  0  0  0  0  0
   11.1872   -1.4473    4.6605 O   0  0  0  0  0  0  0  0  0  0  0  0
    9.5730   -2.2368    3.0372 C   0  0  0  0  0  0  0  0  0  0  0  0
    9.6196   -3.6110    3.1831 O   0  0  0  0  0  0  0  0  0  0  0  0
   10.5552   -4.1481    4.1040 C   0  0  0  0  0  0  0  0  0  0  0  0
    8.6305   -1.8849    2.0426 C   0  0  0  0  0  0  0  0  0  0  0  0
  1  2  1  0
  2  3  1  0
  3  4  1  0
  4  5  1  0
  5  6  1  0
  6  7  1  0
  7  8  1  0
  8  9  1  0
  9 10  1  0
 10 11  1  0
 11 12  1  0
 12 13  1  0
 13 14  1  0
 14 15  1  0
 15 16  1  0
 16 17  1  0
 17 18  1  0
 18 19  1  0
 19 20  1  0
 20 21  1  0
 21 22  1  0
 22 23  1  0
 23 24  1  0
 24 25  2  0
 24 26  1  0
 26 27  2  0
 27 28  1  0
 28 29  2  0
 29 30  1  0
 30 31  2  0
 31 32  1  0
 31 33  1  0
 33 34  1  0
 34 35  1  0
 33 36  2  0
 36 28  1  0
M  CHG  1  32  -1
M  END
$$$$
docosanyl_ferulate_conf3.sdf
     RDKit          3D

 36 36  0  0  0  0  0  0  0  0999 V2000
   13.8082   27.2253   -5.3899 C   0  0  0  0  0  0  0  0  0  0  0  0
   13.3136   26.2439   -4.3707 C   0  0  0  0  0  0  0  0  0  0  0  0
   13.0351   24.8882   -5.0266 C   0  0  0  0  0  0  0  0  0  0  0  0
   12.5366   23.8899   -4.0128 C   0  0  0  0  0  0  0  0  0  0  0  0
   12.2770   22.5591   -4.7273 C   0  0  0  0  0  0  0  0  0  0  0  0
   11.7762   21.5320   -3.7457 C   0  0  0  0  0  0  0  0  0  0  0  0
   11.5106   20.1940   -4.4405 C   0  0  0  0  0  0  0  0  0  0  0  0
   11.0124   19.1626   -3.4788 C   0  0  0  0  0  0  0  0  0  0  0  0
   10.7287   17.8213   -4.0872 C   0  0  0  0  0  0  0  0  0  0  0  0
   10.2295   16.7997   -3.1056 C   0  0  0  0  0  0  0  0  0  0  0  0
    9.9914   15.5076   -3.8698 C   0  0  0  0  0  0  0  0  0  0  0  0
    9.4854   14.4069   -2.9746 C   0  0  0  0  0  0  0  0  0  0  0  0
    9.2449   13.1258   -3.7110 C   0  0  0  0  0  0  0  0  0  0  0  0
    8.7324   12.0278   -2.7782 C   0  0  0  0  0  0  0  0  0  0  0  0
    8.5357   10.8064   -3.6462 C   0  0  0  0  0  0  0  0  0  0  0  0
    8.0321    9.6339   -2.8732 C   0  0  0  0  0  0  0  0  0  0  0  0
    7.8361    8.4201   -3.7329 C   0  0  0  0  0  0  0  0  0  0  0  0
    7.3143    7.2586   -2.8505 C   0  0  0  0  0  0  0  0  0  0  0  0
    7.1320    6.0710   -3.7400 C   0  0  0  0  0  0  0  0  0  0  0  0
    6.6386    4.8742   -3.0558 C   0  0  0  0  0  0  0  0  0  0  0  0
    6.3836    3.5949   -3.7148 C   0  0  0  0  0  0  0  0  0  0  0  0
    5.8874    2.4109   -2.9976 C   0  0  0  0  0  0  0  0  0  0  0  0
    6.8194    2.0637   -1.9657 O   0  0  0  0  0  0  0  0  0  0  0  0
    6.4521    0.9857   -1.2260 C   0  0  0  0  0  0  0  0  0  0  0  0
    5.4364    0.3254   -1.3697 O   0  0  0  0  0  0  0  0  0  0  0  0
    7.4983    0.7546   -0.2126 C   0  0  0  0  0  0  0  0  0  0  0  0
    7.3852   -0.2578    0.6596 C   0  0  0  0  0  0  0  0  0  0  0  0
    8.3925   -0.5586    1.6855 C   0  0  0  0  0  0  0  0  0  0  0  0
    9.0842    0.4287    2.3743 C   0  0  0  0  0  0  0  0  0  0  0  0
   10.0214    0.0774    3.3570 C   0  0  0  0  0  0  0  0  0  0  0  0
   10.3297   -1.2514    3.7314 C   0  0  0  0  0  0  0  0  0  0  0  0
   11.2116   -1.4488    4.6368 O   0  0  0  0  0  0  0  0  0  0  0  0
    9.5868   -2.2376    3.0238 C   0  0  0  0  0  0  0  0  0  0  0  0
    9.6451   -3.6125    3.1582 O   0  0  0  0  0  0  0  0  0  0  0  0
   10.5047   -4.1450    4.1530 C   0  0  0  0  0  0  0  0  0  0  0  0
    8.6424   -1.8856    2.0311 C   0  0  0  0  0  0  0  0  0  0  0  0
  1  2  1  0
  2  3  1  0
  3  4  1  0
  4  5  1  0
  5  6  1  0
  6  7  1  0
  7  8  1  0
  8  9  1  0
  9 10  1  0
 10 11  1  0
 11 12  1  0
 12 13  1  0
 13 14  1  0
 14 15  1  0
 15 16  1  0
 16 17  1  0
 17 18  1  0
 18 19  1  0
 19 20  1  0
 20 21  1  0
 21 22  1  0
 22 23  1  0
 23 24  1  0
 24 25  2  0
 24 26  1  0
 26 27  2  0
 27 28  1  0
 28 29  2  0
 29 30  1  0
 30 31  2  0
 31 32  1  0
 31 33  1  0
 33 34  1  0
 34 35  1  0
 33 36  2  0
 36 28  1  0
M  CHG  1  32  -1
M  END
$$$$
docosanyl_ferulate_conf4.sdf
     RDKit          3D

 36 36  0  0  0  0  0  0  0  0999 V2000
  -19.7176   -7.1659   -8.5383 C   0  0  0  0  0  0  0  0  0  0  0  0
  -18.5400   -6.4545   -9.1331 C   0  0  0  0  0  0  0  0  0  0  0  0
  -17.3406   -6.5211   -8.1830 C   0  0  0  0  0  0  0  0  0  0  0  0
  -16.1475   -5.8092   -8.7686 C   0  0  0  0  0  0  0  0  0  0  0  0
  -14.9847   -5.9105   -7.7753 C   0  0  0  0  0  0  0  0  0  0  0  0
  -13.7701   -5.2093   -8.3250 C   0  0  0  0  0  0  0  0  0  0  0  0
  -12.5960   -5.2992   -7.3465 C   0  0  0  0  0  0  0  0  0  0  0  0
  -11.3812   -4.6073   -7.8779 C   0  0  0  0  0  0  0  0  0  0  0  0
  -10.1861   -4.6525   -6.9727 C   0  0  0  0  0  0  0  0  0  0  0  0
   -8.9769   -3.9523   -7.5240 C   0  0  0  0  0  0  0  0  0  0  0  0
   -7.8624   -4.0866   -6.4991 C   0  0  0  0  0  0  0  0  0  0  0  0
   -6.5932   -3.4147   -6.9535 C   0  0  0  0  0  0  0  0  0  0  0  0
   -5.4838   -3.5371   -5.9556 C   0  0  0  0  0  0  0  0  0  0  0  0
   -4.2093   -2.8466   -6.4431 C   0  0  0  0  0  0  0  0  0  0  0  0
   -3.1860   -3.0475   -5.3493 C   0  0  0  0  0  0  0  0  0  0  0  0
   -1.8713   -2.4237   -5.6783 C   0  0  0  0  0  0  0  0  0  0  0  0
   -0.8538   -2.6218   -4.5939 C   0  0  0  0  0  0  0  0  0  0  0  0
    0.4728   -1.9446   -5.0199 C   0  0  0  0  0  0  0  0  0  0  0  0
    1.4584   -2.1631   -3.9173 C   0  0  0  0  0  0  0  0  0  0  0  0
    2.7788   -1.5797   -4.1630 C   0  0  0  0  0  0  0  0  0  0  0  0
    3.9020   -1.6630   -3.2322 C   0  0  0  0  0  0  0  0  0  0  0  0
    5.2167   -1.0652   -3.5102 C   0  0  0  0  0  0  0  0  0  0  0  0
    6.1424   -1.3487   -2.4495 O   0  0  0  0  0  0  0  0  0  0  0  0
    6.1669   -0.4493   -1.4320 C   0  0  0  0  0  0  0  0  0  0  0  0
    5.4804    0.5547   -1.3361 O   0  0  0  0  0  0  0  0  0  0  0  0
    7.1719   -0.9032   -0.4523 C   0  0  0  0  0  0  0  0  0  0  0  0
    7.3919   -0.1985    0.6674 C   0  0  0  0  0  0  0  0  0  0  0  0
    8.3850   -0.5774    1.6815 C   0  0  0  0  0  0  0  0  0  0  0  0
    9.0665    0.4155    2.3711 C   0  0  0  0  0  0  0  0  0  0  0  0
   10.0087    0.0736    3.3524 C   0  0  0  0  0  0  0  0  0  0  0  0
   10.3308   -1.2525    3.7257 C   0  0  0  0  0  0  0  0  0  0  0  0
   11.2185   -1.4430    4.6268 O   0  0  0  0  0  0  0  0  0  0  0  0
    9.5953   -2.2452    3.0200 C   0  0  0  0  0  0  0  0  0  0  0  0
    9.6648   -3.6197    3.1564 O   0  0  0  0  0  0  0  0  0  0  0  0
   10.4940   -4.1412    4.1827 C   0  0  0  0  0  0  0  0  0  0  0  0
    8.6481   -1.9027    2.0267 C   0  0  0  0  0  0  0  0  0  0  0  0
  1  2  1  0
  2  3  1  0
  3  4  1  0
  4  5  1  0
  5  6  1  0
  6  7  1  0
  7  8  1  0
  8  9  1  0
  9 10  1  0
 10 11  1  0
 11 12  1  0
 12 13  1  0
 13 14  1  0
 14 15  1  0
 15 16  1  0
 16 17  1  0
 17 18  1  0
 18 19  1  0
 19 20  1  0
 20 21  1  0
 21 22  1  0
 22 23  1  0
 23 24  1  0
 24 25  2  0
 24 26  1  0
 26 27  2  0
 27 28  1  0
 28 29  2  0
 29 30  1  0
 30 31  2  0
 31 32  1  0
 31 33  1  0
 33 34  1  0
 34 35  1  0
 33 36  2  0
 36 28  1  0
M  CHG  1  32  -1
M  END
$$$$
docosanyl_ferulate_conf5.sdf
     RDKit          3D

 36 36  0  0  0  0  0  0  0  0999 V2000
   -1.4706   -8.2780  -26.2588 C   0  0  0  0  0  0  0  0  0  0  0  0
   -2.0517   -7.4596  -25.1457 C   0  0  0  0  0  0  0  0  0  0  0  0
   -1.1408   -7.5086  -23.9155 C   0  0  0  0  0  0  0  0  0  0  0  0
   -1.7129   -6.6891  -22.7868 C   0  0  0  0  0  0  0  0  0  0  0  0
   -0.7601   -6.7776  -21.5896 C   0  0  0  0  0  0  0  0  0  0  0  0
   -1.2977   -5.9696  -20.4375 C   0  0  0  0  0  0  0  0  0  0  0  0
   -0.3592   -6.0451  -19.2303 C   0  0  0  0  0  0  0  0  0  0  0  0
   -0.8792   -5.2474  -18.0770 C   0  0  0  0  0  0  0  0  0  0  0  0
   -0.0116   -5.2728  -16.8537 C   0  0  0  0  0  0  0  0  0  0  0  0
   -0.5508   -4.4660  -15.7069 C   0  0  0  0  0  0  0  0  0  0  0  0
    0.4330   -4.5923  -14.5551 C   0  0  0  0  0  0  0  0  0  0  0  0
   -0.0130   -3.8159  -13.3438 C   0  0  0  0  0  0  0  0  0  0  0  0
    0.9447   -3.9289  -12.1985 C   0  0  0  0  0  0  0  0  0  0  0  0
    0.4666   -3.1318  -10.9842 C   0  0  0  0  0  0  0  0  0  0  0  0
    1.5175   -3.3343   -9.9171 C   0  0  0  0  0  0  0  0  0  0  0  0
    1.1924   -2.6106   -8.6535 C   0  0  0  0  0  0  0  0  0  0  0  0
    2.2341   -2.8102   -7.5927 C   0  0  0  0  0  0  0  0  0  0  0  0
    1.8152   -2.0265   -6.3236 C   0  0  0  0  0  0  0  0  0  0  0  0
    2.8746   -2.2495   -5.2927 C   0  0  0  0  0  0  0  0  0  0  0  0
    2.6300   -1.5707   -4.0185 C   0  0  0  0  0  0  0  0  0  0  0  0
    3.5227   -1.6399   -2.8639 C   0  0  0  0  0  0  0  0  0  0  0  0
    3.2469   -0.9452   -1.5973 C   0  0  0  0  0  0  0  0  0  0  0  0
    4.2622   -1.2341   -0.6234 O   0  0  0  0  0  0  0  0  0  0  0  0
    5.3328   -0.3986   -0.6221 C   0  0  0  0  0  0  0  0  0  0  0  0
    5.5101    0.5528   -1.3650 O   0  0  0  0  0  0  0  0  0  0  0  0
    6.2545   -0.8473    0.4386 C   0  0  0  0  0  0  0  0  0  0  0  0
    7.4097   -0.1996    0.6502 C   0  0  0  0  0  0  0  0  0  0  0  0
    8.3705   -0.5765    1.6955 C   0  0  0  0  0  0  0  0  0  0  0  0
    9.1022    0.4133    2.3365 C   0  0  0  0  0  0  0  0  0  0  0  0
   10.0340    0.0720    3.3278 C   0  0  0  0  0  0  0  0  0  0  0  0
   10.3146   -1.2515    3.7414 C   0  0  0  0  0  0  0  0  0  0  0  0
   11.1775   -1.4405    4.6666 O   0  0  0  0  0  0  0  0  0  0  0  0
    9.5685   -2.2436    3.0460 C   0  0  0  0  0  0  0  0  0  0  0  0
    9.6166   -3.6167    3.2033 O   0  0  0  0  0  0  0  0  0  0  0  0
   10.5852   -4.1467    4.0942 C   0  0  0  0  0  0  0  0  0  0  0  0
    8.6249   -1.9013    2.0492 C   0  0  0  0  0  0  0  0  0  0  0  0
  1  2  1  0
  2  3  1  0
  3  4  1  0
  4  5  1  0
  5  6  1  0
  6  7  1  0
  7  8  1  0
  8  9  1  0
  9 10  1  0
 10 11  1  0
 11 12  1  0
 12 13  1  0
 13 14  1  0
 14 15  1  0
 15 16  1  0
 16 17  1  0
 17 18  1  0
 18 19  1  0
 19 20  1  0
 20 21  1  0
 21 22  1  0
 22 23  1  0
 23 24  1  0
 24 25  2  0
 24 26  1  0
 26 27  2  0
 27 28  1  0
 28 29  2  0
 29 30  1  0
 30 31  2  0
 31 32  1  0
 31 33  1  0
 33 34  1  0
 34 35  1  0
 33 36  2  0
 36 28  1  0
M  CHG  1  32  -1
M  END
$$$$
docosanyl_ferulate_conf6.sdf
     RDKit          3D

 36 36  0  0  0  0  0  0  0  0999 V2000
  -18.0435  -11.4851   -8.3087 C   0  0  0  0  0  0  0  0  0  0  0  0
  -17.1801  -10.3288   -8.7140 C   0  0  0  0  0  0  0  0  0  0  0  0
  -15.9306  -10.2605   -7.8311 C   0  0  0  0  0  0  0  0  0  0  0  0
  -15.0519   -9.1014   -8.2275 C   0  0  0  0  0  0  0  0  0  0  0  0
  -13.8233   -9.0865   -7.3113 C   0  0  0  0  0  0  0  0  0  0  0  0
  -12.9176   -7.9395   -7.6761 C   0  0  0  0  0  0  0  0  0  0  0  0
  -11.6830   -7.9071   -6.7715 C   0  0  0  0  0  0  0  0  0  0  0  0
  -10.7728   -6.7731   -7.1211 C   0  0  0  0  0  0  0  0  0  0  0  0
   -9.5376   -6.6753   -6.2758 C   0  0  0  0  0  0  0  0  0  0  0  0
   -8.6368   -5.5304   -6.6425 C   0  0  0  0  0  0  0  0  0  0  0  0
   -7.4420   -5.5683   -5.7035 C   0  0  0  0  0  0  0  0  0  0  0  0
   -6.4671   -4.4551   -5.9850 C   0  0  0  0  0  0  0  0  0  0  0  0
   -5.2830   -4.4769   -5.0691 C   0  0  0  0  0  0  0  0  0  0  0  0
   -4.3115   -3.3370   -5.3776 C   0  0  0  0  0  0  0  0  0  0  0  0
   -3.1781   -3.4806   -4.3883 C   0  0  0  0  0  0  0  0  0  0  0  0
   -2.1344   -2.4286   -4.5618 C   0  0  0  0  0  0  0  0  0  0  0  0
   -1.0082   -2.5692   -3.5808 C   0  0  0  0  0  0  0  0  0  0  0  0
    0.0225   -1.4406   -3.8342 C   0  0  0  0  0  0  0  0  0  0  0  0
    1.1258   -1.6139   -2.8405 C   0  0  0  0  0  0  0  0  0  0  0  0
    2.1941   -0.6179   -2.9441 C   0  0  0  0  0  0  0  0  0  0  0  0
    3.3741   -0.5830   -2.0830 C   0  0  0  0  0  0  0  0  0  0  0  0
    4.4297    0.4324   -2.2140 C   0  0  0  0  0  0  0  0  0  0  0  0
    5.4372    0.1850   -1.2250 O   0  0  0  0  0  0  0  0  0  0  0  0
    6.4712    1.0613   -1.2469 C   0  0  0  0  0  0  0  0  0  0  0  0
    6.5919    2.0037   -2.0173 O   0  0  0  0  0  0  0  0  0  0  0  0
    7.4765    0.7584   -0.2093 C   0  0  0  0  0  0  0  0  0  0  0  0
    7.3834   -0.2603    0.6598 C   0  0  0  0  0  0  0  0  0  0  0  0
    8.3968   -0.5576    1.6819 C   0  0  0  0  0  0  0  0  0  0  0  0
    9.0971    0.4291    2.3621 C   0  0  0  0  0  0  0  0  0  0  0  0
   10.0291    0.0771    3.3497 C   0  0  0  0  0  0  0  0  0  0  0  0
   10.3240   -1.2512    3.7371 C   0  0  0  0  0  0  0  0  0  0  0  0
   11.1955   -1.4487    4.6525 O   0  0  0  0  0  0  0  0  0  0  0  0
    9.5781   -2.2368    3.0326 C   0  0  0  0  0  0  0  0  0  0  0  0
    9.6248   -3.6112    3.1769 O   0  0  0  0  0  0  0  0  0  0  0  0
   10.5377   -4.1476    4.1209 C   0  0  0  0  0  0  0  0  0  0  0  0
    8.6371   -1.8842    2.0373 C   0  0  0  0  0  0  0  0  0  0  0  0
  1  2  1  0
  2  3  1  0
  3  4  1  0
  4  5  1  0
  5  6  1  0
  6  7  1  0
  7  8  1  0
  8  9  1  0
  9 10  1  0
 10 11  1  0
 11 12  1  0
 12 13  1  0
 13 14  1  0
 14 15  1  0
 15 16  1  0
 16 17  1  0
 17 18  1  0
 18 19  1  0
 19 20  1  0
 20 21  1  0
 21 22  1  0
 22 23  1  0
 23 24  1  0
 24 25  2  0
 24 26  1  0
 26 27  2  0
 27 28  1  0
 28 29  2  0
 29 30  1  0
 30 31  2  0
 31 32  1  0
 31 33  1  0
 33 34  1  0
 34 35  1  0
 33 36  2  0
 36 28  1  0
M  CHG  1  32  -1
M  END
$$$$
docosanyl_ferulate_conf7.sdf
     RDKit          3D

 36 36  0  0  0  0  0  0  0  0999 V2000
    3.8491  -24.4567  -10.5270 C   0  0  0  0  0  0  0  0  0  0  0  0
    3.6783  -23.6160   -9.2979 C   0  0  0  0  0  0  0  0  0  0  0  0
    3.8949  -22.1365   -9.6291 C   0  0  0  0  0  0  0  0  0  0  0  0
    3.7262  -21.2779   -8.4014 C   0  0  0  0  0  0  0  0  0  0  0  0
    3.9542  -19.8145   -8.7957 C   0  0  0  0  0  0  0  0  0  0  0  0
    3.7942  -18.9218   -7.5930 C   0  0  0  0  0  0  0  0  0  0  0  0
    4.0183  -17.4542   -7.9664 C   0  0  0  0  0  0  0  0  0  0  0  0
    3.8627  -16.5539   -6.7823 C   0  0  0  0  0  0  0  0  0  0  0  0
    4.0681  -15.0962   -7.0699 C   0  0  0  0  0  0  0  0  0  0  0  0
    3.9076  -14.2091   -5.8684 C   0  0  0  0  0  0  0  0  0  0  0  0
    4.1446  -12.7774   -6.3207 C   0  0  0  0  0  0  0  0  0  0  0  0
    4.0073  -11.7966   -5.1859 C   0  0  0  0  0  0  0  0  0  0  0  0
    4.2376  -10.3803   -5.6134 C   0  0  0  0  0  0  0  0  0  0  0  0
    4.0920   -9.4078   -4.4421 C   0  0  0  0  0  0  0  0  0  0  0  0
    4.3478   -8.0321   -5.0129 C   0  0  0  0  0  0  0  0  0  0  0  0
    4.2412   -6.9593   -3.9816 C   0  0  0  0  0  0  0  0  0  0  0  0
    4.4948   -5.5926   -4.5458 C   0  0  0  0  0  0  0  0  0  0  0  0
    4.3636   -4.5477   -3.4095 C   0  0  0  0  0  0  0  0  0  0  0  0
    4.6224   -3.2030   -4.0091 C   0  0  0  0  0  0  0  0  0  0  0  0
    4.5367   -2.0918   -3.0595 C   0  0  0  0  0  0  0  0  0  0  0  0
    4.7498   -0.6894   -3.4113 C   0  0  0  0  0  0  0  0  0  0  0  0
    4.6560    0.4038   -2.4322 C   0  0  0  0  0  0  0  0  0  0  0  0
    5.6057    0.1732   -1.3844 O   0  0  0  0  0  0  0  0  0  0  0  0
    5.6045    1.1119   -0.4071 C   0  0  0  0  0  0  0  0  0  0  0  0
    4.8863    2.1010   -0.3678 O   0  0  0  0  0  0  0  0  0  0  0  0
    6.5942    0.8132    0.6467 C   0  0  0  0  0  0  0  0  0  0  0  0
    7.3985   -0.2614    0.6452 C   0  0  0  0  0  0  0  0  0  0  0  0
    8.3719   -0.5560    1.7061 C   0  0  0  0  0  0  0  0  0  0  0  0
    9.0931    0.4294    2.3659 C   0  0  0  0  0  0  0  0  0  0  0  0
   10.0309    0.0771    3.3479 C   0  0  0  0  0  0  0  0  0  0  0  0
   10.3262   -1.2513    3.7350 C   0  0  0  0  0  0  0  0  0  0  0  0
   11.2031   -1.4491    4.6450 O   0  0  0  0  0  0  0  0  0  0  0  0
    9.5821   -2.2370    3.0288 C   0  0  0  0  0  0  0  0  0  0  0  0
    9.6386   -3.6121    3.1633 O   0  0  0  0  0  0  0  0  0  0  0  0
   10.5223   -4.1467    4.1358 C   0  0  0  0  0  0  0  0  0  0  0  0
    8.6369   -1.8841    2.0376 C   0  0  0  0  0  0  0  0  0  0  0  0
  1  2  1  0
  2  3  1  0
  3  4  1  0
  4  5  1  0
  5  6  1  0
  6  7  1  0
  7  8  1  0
  8  9  1  0
  9 10  1  0
 10 11  1  0
 11 12  1  0
 12 13  1  0
 13 14  1  0
 14 15  1  0
 15 16  1  0
 16 17  1  0
 17 18  1  0
 18 19  1  0
 19 20  1  0
 20 21  1  0
 21 22  1  0
 22 23  1  0
 23 24  1  0
 24 25  2  0
 24 26  1  0
 26 27  2  0
 27 28  1  0
 28 29  2  0
 29 30  1  0
 30 31  2  0
 31 32  1  0
 31 33  1  0
 33 34  1  0
 34 35  1  0
 33 36  2  0
 36 28  1  0
M  CHG  1  32  -1
M  END
$$$$
docosanyl_ferulate_conf8.sdf
     RDKit          3D

 36 36  0  0  0  0  0  0  0  0999 V2000
   16.6471  -14.9707  -19.8727 C   0  0  0  0  0  0  0  0  0  0  0  0
   16.9043  -13.8141  -18.9546 C   0  0  0  0  0  0  0  0  0  0  0  0
   15.6272  -13.4404  -18.1963 C   0  0  0  0  0  0  0  0  0  0  0  0
   15.8709  -12.2776  -17.2682 C   0  0  0  0  0  0  0  0  0  0  0  0
   14.5614  -11.9526  -16.5413 C   0  0  0  0  0  0  0  0  0  0  0  0
   14.7635  -10.7927  -15.6015 C   0  0  0  0  0  0  0  0  0  0  0  0
   13.4655  -10.4519  -14.8649 C   0  0  0  0  0  0  0  0  0  0  0  0
   13.6494   -9.3014  -13.9272 C   0  0  0  0  0  0  0  0  0  0  0  0
   12.4179   -8.9074  -13.1668 C   0  0  0  0  0  0  0  0  0  0  0  0
   12.6232   -7.7506  -12.2307 C   0  0  0  0  0  0  0  0  0  0  0  0
   11.2959   -7.4768  -11.5424 C   0  0  0  0  0  0  0  0  0  0  0  0
   11.3885   -6.3269  -10.5741 C   0  0  0  0  0  0  0  0  0  0  0  0
   10.0894   -6.0427   -9.8863 C   0  0  0  0  0  0  0  0  0  0  0  0
   10.2132   -4.8718   -8.9104 C   0  0  0  0  0  0  0  0  0  0  0  0
    8.8434   -4.6993   -8.2958 C   0  0  0  0  0  0  0  0  0  0  0  0
    8.7992   -3.5813   -7.3088 C   0  0  0  0  0  0  0  0  0  0  0  0
    7.4403   -3.4082   -6.6973 C   0  0  0  0  0  0  0  0  0  0  0  0
    7.4888   -2.2315   -5.6907 C   0  0  0  0  0  0  0  0  0  0  0  0
    6.1208   -2.0907   -5.1042 C   0  0  0  0  0  0  0  0  0  0  0  0
    5.9926   -1.0118   -4.1228 C   0  0  0  0  0  0  0  0  0  0  0  0
    4.7560   -0.6827   -3.4171 C   0  0  0  0  0  0  0  0  0  0  0  0
    4.6610    0.4087   -2.4362 C   0  0  0  0  0  0  0  0  0  0  0  0
    5.5954    0.1660   -1.3774 O   0  0  0  0  0  0  0  0  0  0  0  0
    5.6081    1.1147   -0.4098 C   0  0  0  0  0  0  0  0  0  0  0  0
    4.9041    2.1144   -0.3805 O   0  0  0  0  0  0  0  0  0  0  0  0
    6.5952    0.8138    0.6459 C   0  0  0  0  0  0  0  0  0  0  0  0
    7.3986   -0.2614    0.6450 C   0  0  0  0  0  0  0  0  0  0  0  0
    8.3718   -0.5560    1.7061 C   0  0  0  0  0  0  0  0  0  0  0  0
    9.0931    0.4293    2.3659 C   0  0  0  0  0  0  0  0  0  0  0  0
   10.0310    0.0771    3.3480 C   0  0  0  0  0  0  0  0  0  0  0  0
   10.3262   -1.2513    3.7351 C   0  0  0  0  0  0  0  0  0  0  0  0
   11.2031   -1.4491    4.6450 O   0  0  0  0  0  0  0  0  0  0  0  0
    9.5820   -2.2370    3.0289 C   0  0  0  0  0  0  0  0  0  0  0  0
    9.6386   -3.6120    3.1634 O   0  0  0  0  0  0  0  0  0  0  0  0
   10.5224   -4.1467    4.1356 C   0  0  0  0  0  0  0  0  0  0  0  0
    8.6368   -1.8841    2.0377 C   0  0  0  0  0  0  0  0  0  0  0  0
  1  2  1  0
  2  3  1  0
  3  4  1  0
  4  5  1  0
  5  6  1  0
  6  7  1  0
  7  8  1  0
  8  9  1  0
  9 10  1  0
 10 11  1  0
 11 12  1  0
 12 13  1  0
 13 14  1  0
 14 15  1  0
 15 16  1  0
 16 17  1  0
 17 18  1  0
 18 19  1  0
 19 20  1  0
 20 21  1  0
 21 22  1  0
 22 23  1  0
 23 24  1  0
 24 25  2  0
 24 26  1  0
 26 27  2  0
 27 28  1  0
 28 29  2  0
 29 30  1  0
 30 31  2  0
 31 32  1  0
 31 33  1  0
 33 34  1  0
 34 35  1  0
 33 36  2  0
 36 28  1  0
M  CHG  1  32  -1
M  END
$$$$
docosanyl_ferulate_conf9.sdf
     RDKit          3D

 36 36  0  0  0  0  0  0  0  0999 V2000
   17.5744   22.5297  -11.1215 C   0  0  0  0  0  0  0  0  0  0  0  0
   17.1200   21.9581   -9.8125 C   0  0  0  0  0  0  0  0  0  0  0  0
   16.3042   20.6823  -10.0419 C   0  0  0  0  0  0  0  0  0  0  0  0
   15.8400   20.0955   -8.7330 C   0  0  0  0  0  0  0  0  0  0  0  0
   15.0327   18.8264   -9.0278 C   0  0  0  0  0  0  0  0  0  0  0  0
   14.5495   18.2083   -7.7419 C   0  0  0  0  0  0  0  0  0  0  0  0
   13.7399   16.9380   -8.0149 C   0  0  0  0  0  0  0  0  0  0  0  0
   13.2525   16.3116   -6.7473 C   0  0  0  0  0  0  0  0  0  0  0  0
   12.4490   15.0588   -6.9342 C   0  0  0  0  0  0  0  0  0  0  0  0
   11.9689   14.4452   -5.6498 C   0  0  0  0  0  0  0  0  0  0  0  0
   11.1786   13.1965   -6.0056 C   0  0  0  0  0  0  0  0  0  0  0  0
   10.6465   12.4972   -4.7824 C   0  0  0  0  0  0  0  0  0  0  0  0
    9.8649   11.2641   -5.1141 C   0  0  0  0  0  0  0  0  0  0  0  0
    9.3377   10.5757   -3.8545 C   0  0  0  0  0  0  0  0  0  0  0  0
    8.5774    9.3610   -4.3346 C   0  0  0  0  0  0  0  0  0  0  0  0
    7.9941    8.5734   -3.2098 C   0  0  0  0  0  0  0  0  0  0  0  0
    7.2389    7.3670   -3.6839 C   0  0  0  0  0  0  0  0  0  0  0  0
    6.6716    6.6143   -2.4544 C   0  0  0  0  0  0  0  0  0  0  0  0
    5.9282    5.4224   -2.9661 C   0  0  0  0  0  0  0  0  0  0  0  0
    5.3232    4.5938   -1.9215 C   0  0  0  0  0  0  0  0  0  0  0  0
    4.5498    3.3806   -2.1773 C   0  0  0  0  0  0  0  0  0  0  0  0
    3.9549    2.5702   -1.1039 C   0  0  0  0  0  0  0  0  0  0  0  0
    4.9443    2.1817   -0.1391 O   0  0  0  0  0  0  0  0  0  0  0  0
    5.6200    1.0370   -0.4174 C   0  0  0  0  0  0  0  0  0  0  0  0
    5.4656    0.3243   -1.3953 O   0  0  0  0  0  0  0  0  0  0  0  0
    6.5871    0.8091    0.6727 C   0  0  0  0  0  0  0  0  0  0  0  0
    7.3985   -0.2584    0.6468 C   0  0  0  0  0  0  0  0  0  0  0  0
    8.3756   -0.5576    1.7020 C   0  0  0  0  0  0  0  0  0  0  0  0
    9.1057    0.4273    2.3533 C   0  0  0  0  0  0  0  0  0  0  0  0
   10.0384    0.0763    3.3404 C   0  0  0  0  0  0  0  0  0  0  0  0
   10.3203   -1.2508    3.7406 C   0  0  0  0  0  0  0  0  0  0  0  0
   11.1870   -1.4473    4.6608 O   0  0  0  0  0  0  0  0  0  0  0  0
    9.5728   -2.2368    3.0373 C   0  0  0  0  0  0  0  0  0  0  0  0
    9.6192   -3.6110    3.1834 O   0  0  0  0  0  0  0  0  0  0  0  0
   10.5558   -4.1481    4.1035 C   0  0  0  0  0  0  0  0  0  0  0  0
    8.6304   -1.8849    2.0428 C   0  0  0  0  0  0  0  0  0  0  0  0
  1  2  1  0
  2  3  1  0
  3  4  1  0
  4  5  1  0
  5  6  1  0
  6  7  1  0
  7  8  1  0
  8  9  1  0
  9 10  1  0
 10 11  1  0
 11 12  1  0
 12 13  1  0
 13 14  1  0
 14 15  1  0
 15 16  1  0
 16 17  1  0
 17 18  1  0
 18 19  1  0
 19 20  1  0
 20 21  1  0
 21 22  1  0
 22 23  1  0
 23 24  1  0
 24 25  2  0
 24 26  1  0
 26 27  2  0
 27 28  1  0
 28 29  2  0
 29 30  1  0
 30 31  2  0
 31 32  1  0
 31 33  1  0
 33 34  1  0
 34 35  1  0
 33 36  2  0
 36 28  1  0
M  CHG  1  32  -1
M  END
$$$$
docosanyl_ferulate_conf10.sdf
     RDKit          3D

 36 36  0  0  0  0  0  0  0  0999 V2000
   -3.2092   23.7947    9.0610 C   0  0  0  0  0  0  0  0  0  0  0  0
   -1.9267   23.1173    8.6831 C   0  0  0  0  0  0  0  0  0  0  0  0
   -2.2129   21.8094    7.9396 C   0  0  0  0  0  0  0  0  0  0  0  0
   -0.9310   21.1163    7.5529 C   0  0  0  0  0  0  0  0  0  0  0  0
   -1.2824   19.8195    6.8153 C   0  0  0  0  0  0  0  0  0  0  0  0
   -0.0250   19.0954    6.4109 C   0  0  0  0  0  0  0  0  0  0  0  0
   -0.3547   17.7958    5.6720 C   0  0  0  0  0  0  0  0  0  0  0  0
    0.8841   17.0644    5.2631 C   0  0  0  0  0  0  0  0  0  0  0  0
    0.6415   15.7775    4.5319 C   0  0  0  0  0  0  0  0  0  0  0  0
    1.8975   15.0582    4.1301 C   0  0  0  0  0  0  0  0  0  0  0  0
    1.4861   13.7864    3.4064 C   0  0  0  0  0  0  0  0  0  0  0  0
    2.6774   12.9821    2.9562 C   0  0  0  0  0  0  0  0  0  0  0  0
    2.2907   11.7250    2.2410 C   0  0  0  0  0  0  0  0  0  0  0  0
    3.5188   10.9298    1.7960 C   0  0  0  0  0  0  0  0  0  0  0  0
    2.9846    9.7013    1.0964 C   0  0  0  0  0  0  0  0  0  0  0  0
    4.0736    8.8120    0.5972 C   0  0  0  0  0  0  0  0  0  0  0  0
    3.5457    7.5918   -0.0977 C   0  0  0  0  0  0  0  0  0  0  0  0
    4.7409    6.7317   -0.5796 C   0  0  0  0  0  0  0  0  0  0  0  0
    4.1762    5.5291   -1.2648 C   0  0  0  0  0  0  0  0  0  0  0  0
    5.1830    4.6022   -1.7855 C   0  0  0  0  0  0  0  0  0  0  0  0
    4.8731    3.3608   -2.4914 C   0  0  0  0  0  0  0  0  0  0  0  0
    5.9096    2.4512   -3.0023 C   0  0  0  0  0  0  0  0  0  0  0  0
    6.8209    2.0673   -1.9615 O   0  0  0  0  0  0  0  0  0  0  0  0
    6.4531    0.9862   -1.2265 C   0  0  0  0  0  0  0  0  0  0  0  0
    5.4372    0.3259   -1.3678 O   0  0  0  0  0  0  0  0  0  0  0  0
    7.5000    0.7535   -0.2139 C   0  0  0  0  0  0  0  0  0  0  0  0
    7.3852   -0.2576    0.6597 C   0  0  0  0  0  0  0  0  0  0  0  0
    8.3925   -0.5587    1.6856 C   0  0  0  0  0  0  0  0  0  0  0  0
    9.0840    0.4287    2.3744 C   0  0  0  0  0  0  0  0  0  0  0  0
   10.0212    0.0774    3.3571 C   0  0  0  0  0  0  0  0  0  0  0  0
   10.3298   -1.2514    3.7314 C   0  0  0  0  0  0  0  0  0  0  0  0
   11.2119   -1.4488    4.6365 O   0  0  0  0  0  0  0  0  0  0  0  0
    9.5869   -2.2376    3.0236 C   0  0  0  0  0  0  0  0  0  0  0  0
    9.6454   -3.6126    3.1579 O   0  0  0  0  0  0  0  0  0  0  0  0
   10.5042   -4.1449    4.1535 C   0  0  0  0  0  0  0  0  0  0  0  0
    8.6426   -1.8856    2.0309 C   0  0  0  0  0  0  0  0  0  0  0  0
  1  2  1  0
  2  3  1  0
  3  4  1  0
  4  5  1  0
  5  6  1  0
  6  7  1  0
  7  8  1  0
  8  9  1  0
  9 10  1  0
 10 11  1  0
 11 12  1  0
 12 13  1  0
 13 14  1  0
 14 15  1  0
 15 16  1  0
 16 17  1  0
 17 18  1  0
 18 19  1  0
 19 20  1  0
 20 21  1  0
 21 22  1  0
 22 23  1  0
 23 24  1  0
 24 25  2  0
 24 26  1  0
 26 27  2  0
 27 28  1  0
 28 29  2  0
 29 30  1  0
 30 31  2  0
 31 32  1  0
 31 33  1  0
 33 34  1  0
 34 35  1  0
 33 36  2  0
 36 28  1  0
M  CHG  1  32  -1
M  END
$$$$
docosanyl_ferulate_conf11.sdf
     RDKit          3D

 36 36  0  0  0  0  0  0  0  0999 V2000
  -11.3006  -19.1127    4.5801 C   0  0  0  0  0  0  0  0  0  0  0  0
   -9.8549  -18.8156    4.3188 C   0  0  0  0  0  0  0  0  0  0  0  0
   -9.6754  -17.3476    3.9205 C   0  0  0  0  0  0  0  0  0  0  0  0
   -8.2250  -17.0338    3.6543 C   0  0  0  0  0  0  0  0  0  0  0  0
   -8.1109  -15.5565    3.2620 C   0  0  0  0  0  0  0  0  0  0  0  0
   -6.6729  -15.2021    2.9871 C   0  0  0  0  0  0  0  0  0  0  0  0
   -6.5373  -13.7290    2.5931 C   0  0  0  0  0  0  0  0  0  0  0  0
   -5.1144  -13.3609    2.3166 C   0  0  0  0  0  0  0  0  0  0  0  0
   -4.9009  -11.9292    1.9232 C   0  0  0  0  0  0  0  0  0  0  0  0
   -3.4659  -11.5794    1.6498 C   0  0  0  0  0  0  0  0  0  0  0  0
   -3.4172  -10.1090    1.2677 C   0  0  0  0  0  0  0  0  0  0  0  0
   -2.0142   -9.6490    0.9702 C   0  0  0  0  0  0  0  0  0  0  0  0
   -1.9471   -8.2021    0.5916 C   0  0  0  0  0  0  0  0  0  0  0  0
   -0.5123   -7.7634    0.2956 C   0  0  0  0  0  0  0  0  0  0  0  0
   -0.5946   -6.2988   -0.0683 C   0  0  0  0  0  0  0  0  0  0  0  0
    0.7410   -5.7161   -0.3886 C   0  0  0  0  0  0  0  0  0  0  0  0
    0.6619   -4.2623   -0.7501 C   0  0  0  0  0  0  0  0  0  0  0  0
    2.0877   -3.7449   -1.0651 C   0  0  0  0  0  0  0  0  0  0  0  0
    1.9678   -2.2975   -1.4198 C   0  0  0  0  0  0  0  0  0  0  0  0
    3.2387   -1.6489   -1.7485 C   0  0  0  0  0  0  0  0  0  0  0  0
    3.3730   -0.2433   -2.1251 C   0  0  0  0  0  0  0  0  0  0  0  0
    4.6659    0.3776   -2.4497 C   0  0  0  0  0  0  0  0  0  0  0  0
    5.6119    0.1823   -1.3882 O   0  0  0  0  0  0  0  0  0  0  0  0
    5.5979    1.1100   -0.4002 C   0  0  0  0  0  0  0  0  0  0  0  0
    4.8672    2.0892   -0.3454 O   0  0  0  0  0  0  0  0  0  0  0  0
    6.5902    0.8104    0.6511 C   0  0  0  0  0  0  0  0  0  0  0  0
    7.3983   -0.2612    0.6455 C   0  0  0  0  0  0  0  0  0  0  0  0
    8.3718   -0.5561    1.7062 C   0  0  0  0  0  0  0  0  0  0  0  0
    9.0926    0.4294    2.3664 C   0  0  0  0  0  0  0  0  0  0  0  0
   10.0306    0.0772    3.3482 C   0  0  0  0  0  0  0  0  0  0  0  0
   10.3264   -1.2514    3.7348 C   0  0  0  0  0  0  0  0  0  0  0  0
   11.2037   -1.4491    4.6444 O   0  0  0  0  0  0  0  0  0  0  0  0
    9.5825   -2.2371    3.0283 C   0  0  0  0  0  0  0  0  0  0  0  0
    9.6396   -3.6121    3.1625 O   0  0  0  0  0  0  0  0  0  0  0  0
   10.5208   -4.1466    4.1373 C   0  0  0  0  0  0  0  0  0  0  0  0
    8.6373   -1.8842    2.0371 C   0  0  0  0  0  0  0  0  0  0  0  0
  1  2  1  0
  2  3  1  0
  3  4  1  0
  4  5  1  0
  5  6  1  0
  6  7  1  0
  7  8  1  0
  8  9  1  0
  9 10  1  0
 10 11  1  0
 11 12  1  0
 12 13  1  0
 13 14  1  0
 14 15  1  0
 15 16  1  0
 16 17  1  0
 17 18  1  0
 18 19  1  0
 19 20  1  0
 20 21  1  0
 21 22  1  0
 22 23  1  0
 23 24  1  0
 24 25  2  0
 24 26  1  0
 26 27  2  0
 27 28  1  0
 28 29  2  0
 29 30  1  0
 30 31  2  0
 31 32  1  0
 31 33  1  0
 33 34  1  0
 34 35  1  0
 33 36  2  0
 36 28  1  0
M  CHG  1  32  -1
M  END
$$$$
docosanyl_ferulate_conf12.sdf
     RDKit          3D

 36 36  0  0  0  0  0  0  0  0999 V2000
   10.6415  -20.4484  -16.7283 C   0  0  0  0  0  0  0  0  0  0  0  0
   10.3598  -20.0461  -15.3121 C   0  0  0  0  0  0  0  0  0  0  0  0
   10.0493  -18.5483  -15.2345 C   0  0  0  0  0  0  0  0  0  0  0  0
    9.7638  -18.1288  -13.8149 C   0  0  0  0  0  0  0  0  0  0  0  0
    9.4617  -16.6262  -13.8030 C   0  0  0  0  0  0  0  0  0  0  0  0
    9.1702  -16.1665  -12.3984 C   0  0  0  0  0  0  0  0  0  0  0  0
    8.8655  -14.6667  -12.3649 C   0  0  0  0  0  0  0  0  0  0  0  0
    8.5738  -14.1941  -10.9763 C   0  0  0  0  0  0  0  0  0  0  0  0
    8.2650  -12.7307  -10.8625 C   0  0  0  0  0  0  0  0  0  0  0  0
    7.9750  -12.2759   -9.4606 C   0  0  0  0  0  0  0  0  0  0  0  0
    7.6843  -10.7848   -9.5132 C   0  0  0  0  0  0  0  0  0  0  0  0
    7.3779  -10.2207   -8.1506 C   0  0  0  0  0  0  0  0  0  0  0  0
    7.0889   -8.7520   -8.1834 C   0  0  0  0  0  0  0  0  0  0  0  0
    6.7817   -8.2074   -6.7878 C   0  0  0  0  0  0  0  0  0  0  0  0
    6.5125   -6.7315   -6.9702 C   0  0  0  0  0  0  0  0  0  0  0  0
    6.1930   -6.0480   -5.6830 C   0  0  0  0  0  0  0  0  0  0  0  0
    5.9254   -4.5828   -5.8615 C   0  0  0  0  0  0  0  0  0  0  0  0
    5.6044   -3.9589   -4.4802 C   0  0  0  0  0  0  0  0  0  0  0  0
    5.3444   -2.5031   -4.6988 C   0  0  0  0  0  0  0  0  0  0  0  0
    5.0222   -1.7575   -3.4806 C   0  0  0  0  0  0  0  0  0  0  0  0
    4.7307   -0.3260   -3.4437 C   0  0  0  0  0  0  0  0  0  0  0  0
    4.4104    0.3933   -2.2016 C   0  0  0  0  0  0  0  0  0  0  0  0
    5.4313    0.1933   -1.2128 O   0  0  0  0  0  0  0  0  0  0  0  0
    6.4754    1.0566   -1.2524 C   0  0  0  0  0  0  0  0  0  0  0  0
    6.6114    1.9830   -2.0391 O   0  0  0  0  0  0  0  0  0  0  0  0
    7.4784    0.7563   -0.2114 C   0  0  0  0  0  0  0  0  0  0  0  0
    7.3837   -0.2604    0.6597 C   0  0  0  0  0  0  0  0  0  0  0  0
    8.3969   -0.5576    1.6819 C   0  0  0  0  0  0  0  0  0  0  0  0
    9.0975    0.4292    2.3617 C   0  0  0  0  0  0  0  0  0  0  0  0
   10.0294    0.0772    3.3494 C   0  0  0  0  0  0  0  0  0  0  0  0
   10.3238   -1.2511    3.7373 C   0  0  0  0  0  0  0  0  0  0  0  0
   11.1949   -1.4486    4.6529 O   0  0  0  0  0  0  0  0  0  0  0  0
    9.5776   -2.2368    3.0330 C   0  0  0  0  0  0  0  0  0  0  0  0
    9.6241   -3.6111    3.1776 O   0  0  0  0  0  0  0  0  0  0  0  0
   10.5390   -4.1477    4.1196 C   0  0  0  0  0  0  0  0  0  0  0  0
    8.6368   -1.8842    2.0377 C   0  0  0  0  0  0  0  0  0  0  0  0
  1  2  1  0
  2  3  1  0
  3  4  1  0
  4  5  1  0
  5  6  1  0
  6  7  1  0
  7  8  1  0
  8  9  1  0
  9 10  1  0
 10 11  1  0
 11 12  1  0
 12 13  1  0
 13 14  1  0
 14 15  1  0
 15 16  1  0
 16 17  1  0
 17 18  1  0
 18 19  1  0
 19 20  1  0
 20 21  1  0
 21 22  1  0
 22 23  1  0
 23 24  1  0
 24 25  2  0
 24 26  1  0
 26 27  2  0
 27 28  1  0
 28 29  2  0
 29 30  1  0
 30 31  2  0
 31 32  1  0
 31 33  1  0
 33 34  1  0
 34 35  1  0
 33 36  2  0
 36 28  1  0
M  CHG  1  32  -1
M  END
$$$$
docosanyl_ferulate_conf13.sdf
     RDKit          3D

 36 36  0  0  0  0  0  0  0  0999 V2000
  -20.0505   -6.6711   -7.2726 C   0  0  0  0  0  0  0  0  0  0  0  0
  -18.8928   -5.9506   -7.8948 C   0  0  0  0  0  0  0  0  0  0  0  0
  -17.6952   -5.9405   -6.9401 C   0  0  0  0  0  0  0  0  0  0  0  0
  -16.5221   -5.2185   -7.5530 C   0  0  0  0  0  0  0  0  0  0  0  0
  -15.3602   -5.2422   -6.5538 C   0  0  0  0  0  0  0  0  0  0  0  0
  -14.1653   -4.5288   -7.1304 C   0  0  0  0  0  0  0  0  0  0  0  0
  -12.9925   -4.5413   -6.1466 C   0  0  0  0  0  0  0  0  0  0  0  0
  -11.7972   -3.8363   -6.7043 C   0  0  0  0  0  0  0  0  0  0  0  0
  -10.6042   -3.8070   -5.7955 C   0  0  0  0  0  0  0  0  0  0  0  0
   -9.4147   -3.0947   -6.3736 C   0  0  0  0  0  0  0  0  0  0  0  0
   -8.3002   -3.1515   -5.3415 C   0  0  0  0  0  0  0  0  0  0  0  0
   -7.0502   -2.4616   -5.8217 C   0  0  0  0  0  0  0  0  0  0  0  0
   -5.9411   -2.5077   -4.8171 C   0  0  0  0  0  0  0  0  0  0  0  0
   -4.6863   -1.8006   -5.3308 C   0  0  0  0  0  0  0  0  0  0  0  0
   -3.6612   -1.9237   -4.2272 C   0  0  0  0  0  0  0  0  0  0  0  0
   -2.3646   -1.2751   -4.5799 C   0  0  0  0  0  0  0  0  0  0  0  0
   -1.3455   -1.3961   -3.4859 C   0  0  0  0  0  0  0  0  0  0  0  0
   -0.0383   -0.6979   -3.9376 C   0  0  0  0  0  0  0  0  0  0  0  0
    0.9496   -0.8392   -2.8246 C   0  0  0  0  0  0  0  0  0  0  0  0
    2.2527   -0.2272   -3.0922 C   0  0  0  0  0  0  0  0  0  0  0  0
    3.3748   -0.2369   -2.1562 C   0  0  0  0  0  0  0  0  0  0  0  0
    4.6718    0.3879   -2.4568 C   0  0  0  0  0  0  0  0  0  0  0  0
    5.6015    0.1771   -1.3830 O   0  0  0  0  0  0  0  0  0  0  0  0
    5.6023    1.1144   -0.4035 C   0  0  0  0  0  0  0  0  0  0  0  0
    4.8860    2.1045   -0.3574 O   0  0  0  0  0  0  0  0  0  0  0  0
    6.5920    0.8117    0.6495 C   0  0  0  0  0  0  0  0  0  0  0  0
    7.3984   -0.2611    0.6452 C   0  0  0  0  0  0  0  0  0  0  0  0
    8.3717   -0.5561    1.7061 C   0  0  0  0  0  0  0  0  0  0  0  0
    9.0926    0.4294    2.3663 C   0  0  0  0  0  0  0  0  0  0  0  0
   10.0307    0.0771    3.3482 C   0  0  0  0  0  0  0  0  0  0  0  0
   10.3264   -1.2513    3.7348 C   0  0  0  0  0  0  0  0  0  0  0  0
   11.2037   -1.4492    4.6444 O   0  0  0  0  0  0  0  0  0  0  0  0
    9.5824   -2.2371    3.0284 C   0  0  0  0  0  0  0  0  0  0  0  0
    9.6395   -3.6120    3.1627 O   0  0  0  0  0  0  0  0  0  0  0  0
   10.5211   -4.1466    4.1371 C   0  0  0  0  0  0  0  0  0  0  0  0
    8.6371   -1.8842    2.0373 C   0  0  0  0  0  0  0  0  0  0  0  0
  1  2  1  0
  2  3  1  0
  3  4  1  0
  4  5  1  0
  5  6  1  0
  6  7  1  0
  7  8  1  0
  8  9  1  0
  9 10  1  0
 10 11  1  0
 11 12  1  0
 12 13  1  0
 13 14  1  0
 14 15  1  0
 15 16  1  0
 16 17  1  0
 17 18  1  0
 18 19  1  0
 19 20  1  0
 20 21  1  0
 21 22  1  0
 22 23  1  0
 23 24  1  0
 24 25  2  0
 24 26  1  0
 26 27  2  0
 27 28  1  0
 28 29  2  0
 29 30  1  0
 30 31  2  0
 31 32  1  0
 31 33  1  0
 33 34  1  0
 34 35  1  0
 33 36  2  0
 36 28  1  0
M  CHG  1  32  -1
M  END
$$$$
docosanyl_ferulate_conf14.sdf
     RDKit          3D

 36 36  0  0  0  0  0  0  0  0999 V2000
   -0.1661   -7.8819  -26.5825 C   0  0  0  0  0  0  0  0  0  0  0  0
   -0.7735   -7.0539  -25.4906 C   0  0  0  0  0  0  0  0  0  0  0  0
    0.1469   -7.0268  -24.2667 C   0  0  0  0  0  0  0  0  0  0  0  0
   -0.4515   -6.1970  -23.1593 C   0  0  0  0  0  0  0  0  0  0  0  0
    0.5120   -6.2086  -21.9675 C   0  0  0  0  0  0  0  0  0  0  0  0
   -0.0512   -5.3881  -20.8366 C   0  0  0  0  0  0  0  0  0  0  0  0
    0.8975   -5.3871  -19.6351 C   0  0  0  0  0  0  0  0  0  0  0  0
    0.3524   -4.5761  -18.5029 C   0  0  0  0  0  0  0  0  0  0  0  0
    1.2283   -4.5273  -17.2862 C   0  0  0  0  0  0  0  0  0  0  0  0
    0.6635   -3.7084  -16.1607 C   0  0  0  0  0  0  0  0  0  0  0  0
    1.6592   -3.7578  -15.0133 C   0  0  0  0  0  0  0  0  0  0  0  0
    1.1892   -2.9634  -13.8230 C   0  0  0  0  0  0  0  0  0  0  0  0
    2.1583   -3.0009  -12.6824 C   0  0  0  0  0  0  0  0  0  0  0  0
    1.6555   -2.1868  -11.4895 C   0  0  0  0  0  0  0  0  0  0  0  0
    2.7208   -2.3124  -10.4249 C   0  0  0  0  0  0  0  0  0  0  0  0
    2.3742   -1.5637   -9.1818 C   0  0  0  0  0  0  0  0  0  0  0  0
    3.4302   -1.6869   -8.1234 C   0  0  0  0  0  0  0  0  0  0  0  0
    2.9873   -0.8821   -6.8758 C   0  0  0  0  0  0  0  0  0  0  0  0
    4.0619   -1.0288   -5.8470 C   0  0  0  0  0  0  0  0  0  0  0  0
    3.7976   -0.3214   -4.5924 C   0  0  0  0  0  0  0  0  0  0  0  0
    4.7001   -0.3176   -3.4432 C   0  0  0  0  0  0  0  0  0  0  0  0
    4.4038    0.4042   -2.1965 C   0  0  0  0  0  0  0  0  0  0  0  0
    5.4365    0.1871   -1.2228 O   0  0  0  0  0  0  0  0  0  0  0  0
    6.4722    1.0614   -1.2484 C   0  0  0  0  0  0  0  0  0  0  0  0
    6.5998    2.0001   -2.0218 O   0  0  0  0  0  0  0  0  0  0  0  0
    7.4768    0.7577   -0.2099 C   0  0  0  0  0  0  0  0  0  0  0  0
    7.3834   -0.2603    0.6597 C   0  0  0  0  0  0  0  0  0  0  0  0
    8.3969   -0.5576    1.6818 C   0  0  0  0  0  0  0  0  0  0  0  0
    9.0974    0.4291    2.3617 C   0  0  0  0  0  0  0  0  0  0  0  0
   10.0293    0.0772    3.3496 C   0  0  0  0  0  0  0  0  0  0  0  0
   10.3239   -1.2511    3.7373 C   0  0  0  0  0  0  0  0  0  0  0  0
   11.1950   -1.4486    4.6528 O   0  0  0  0  0  0  0  0  0  0  0  0
    9.5778   -2.2369    3.0329 C   0  0  0  0  0  0  0  0  0  0  0  0
    9.6242   -3.6111    3.1776 O   0  0  0  0  0  0  0  0  0  0  0  0
   10.5387   -4.1477    4.1198 C   0  0  0  0  0  0  0  0  0  0  0  0
    8.6370   -1.8842    2.0375 C   0  0  0  0  0  0  0  0  0  0  0  0
  1  2  1  0
  2  3  1  0
  3  4  1  0
  4  5  1  0
  5  6  1  0
  6  7  1  0
  7  8  1  0
  8  9  1  0
  9 10  1  0
 10 11  1  0
 11 12  1  0
 12 13  1  0
 13 14  1  0
 14 15  1  0
 15 16  1  0
 16 17  1  0
 17 18  1  0
 18 19  1  0
 19 20  1  0
 20 21  1  0
 21 22  1  0
 22 23  1  0
 23 24  1  0
 24 25  2  0
 24 26  1  0
 26 27  2  0
 27 28  1  0
 28 29  2  0
 29 30  1  0
 30 31  2  0
 31 32  1  0
 31 33  1  0
 33 34  1  0
 34 35  1  0
 33 36  2  0
 36 28  1  0
M  CHG  1  32  -1
M  END
$$$$
docosanyl_ferulate_conf15.sdf
     RDKit          3D

 36 36  0  0  0  0  0  0  0  0999 V2000
  -11.7948   14.9184   11.6566 C   0  0  0  0  0  0  0  0  0  0  0  0
  -11.1204   13.5882   11.5074 C   0  0  0  0  0  0  0  0  0  0  0  0
  -10.1300   13.6201   10.3395 C   0  0  0  0  0  0  0  0  0  0  0  0
   -9.4436   12.2878   10.1771 C   0  0  0  0  0  0  0  0  0  0  0  0
   -8.4692   12.3829    8.9979 C   0  0  0  0  0  0  0  0  0  0  0  0
   -7.7610   11.0678    8.8021 C   0  0  0  0  0  0  0  0  0  0  0  0
   -6.7822   11.1422    7.6274 C   0  0  0  0  0  0  0  0  0  0  0  0
   -6.0705    9.8434    7.4197 C   0  0  0  0  0  0  0  0  0  0  0  0
   -5.0917    9.8381    6.2831 C   0  0  0  0  0  0  0  0  0  0  0  0
   -4.3875    8.5251    6.0909 C   0  0  0  0  0  0  0  0  0  0  0  0
   -3.4396    8.6814    4.9131 C   0  0  0  0  0  0  0  0  0  0  0  0
   -2.6763    7.4141    4.6303 C   0  0  0  0  0  0  0  0  0  0  0  0
   -1.7370    7.5498    3.4724 C   0  0  0  0  0  0  0  0  0  0  0  0
   -0.9766    6.2494    3.2089 C   0  0  0  0  0  0  0  0  0  0  0  0
   -0.0764    6.5291    2.0276 C   0  0  0  0  0  0  0  0  0  0  0  0
    0.7418    5.3426    1.6422 C   0  0  0  0  0  0  0  0  0  0  0  0
    1.6364    5.6178    0.4697 C   0  0  0  0  0  0  0  0  0  0  0  0
    2.4437    4.3368    0.1422 C   0  0  0  0  0  0  0  0  0  0  0  0
    3.3203    4.6499   -1.0276 C   0  0  0  0  0  0  0  0  0  0  0  0
    4.1586    3.5339   -1.4698 C   0  0  0  0  0  0  0  0  0  0  0  0
    5.0944    3.5999   -2.5902 C   0  0  0  0  0  0  0  0  0  0  0  0
    5.9225    2.4593   -3.0094 C   0  0  0  0  0  0  0  0  0  0  0  0
    6.8195    2.0700   -1.9578 O   0  0  0  0  0  0  0  0  0  0  0  0
    6.4532    0.9860   -1.2268 C   0  0  0  0  0  0  0  0  0  0  0  0
    5.4382    0.3243   -1.3671 O   0  0  0  0  0  0  0  0  0  0  0  0
    7.5003    0.7531   -0.2142 C   0  0  0  0  0  0  0  0  0  0  0  0
    7.3852   -0.2576    0.6597 C   0  0  0  0  0  0  0  0  0  0  0  0
    8.3925   -0.5586    1.6855 C   0  0  0  0  0  0  0  0  0  0  0  0
    9.0838    0.4287    2.3746 C   0  0  0  0  0  0  0  0  0  0  0  0
   10.0210    0.0774    3.3572 C   0  0  0  0  0  0  0  0  0  0  0  0
   10.3299   -1.2514    3.7312 C   0  0  0  0  0  0  0  0  0  0  0  0
   11.2121   -1.4488    4.6363 O   0  0  0  0  0  0  0  0  0  0  0  0
    9.5870   -2.2376    3.0235 C   0  0  0  0  0  0  0  0  0  0  0  0
    9.6458   -3.6126    3.1577 O   0  0  0  0  0  0  0  0  0  0  0  0
   10.5037   -4.1449    4.1540 C   0  0  0  0  0  0  0  0  0  0  0  0
    8.6426   -1.8857    2.0309 C   0  0  0  0  0  0  0  0  0  0  0  0
  1  2  1  0
  2  3  1  0
  3  4  1  0
  4  5  1  0
  5  6  1  0
  6  7  1  0
  7  8  1  0
  8  9  1  0
  9 10  1  0
 10 11  1  0
 11 12  1  0
 12 13  1  0
 13 14  1  0
 14 15  1  0
 15 16  1  0
 16 17  1  0
 17 18  1  0
 18 19  1  0
 19 20  1  0
 20 21  1  0
 21 22  1  0
 22 23  1  0
 23 24  1  0
 24 25  2  0
 24 26  1  0
 26 27  2  0
 27 28  1  0
 28 29  2  0
 29 30  1  0
 30 31  2  0
 31 32  1  0
 31 33  1  0
 33 34  1  0
 34 35  1  0
 33 36  2  0
 36 28  1  0
M  CHG  1  32  -1
M  END
$$$$
docosanyl_ferulate_conf16.sdf
     RDKit          3D

 36 36  0  0  0  0  0  0  0  0999 V2000
   19.8432   12.9924  -19.0677 C   0  0  0  0  0  0  0  0  0  0  0  0
   19.5927   11.7185  -18.3188 C   0  0  0  0  0  0  0  0  0  0  0  0
   18.4025   11.8832  -17.3690 C   0  0  0  0  0  0  0  0  0  0  0  0
   18.1383   10.6086  -16.6081 C   0  0  0  0  0  0  0  0  0  0  0  0
   16.9412   10.8360  -15.6787 C   0  0  0  0  0  0  0  0  0  0  0  0
   16.6443    9.5821  -14.8984 C   0  0  0  0  0  0  0  0  0  0  0  0
   15.4503    9.7887  -13.9630 C   0  0  0  0  0  0  0  0  0  0  0  0
   15.1423    8.5520  -13.1805 C   0  0  0  0  0  0  0  0  0  0  0  0
   13.9813    8.6770  -12.2390 C   0  0  0  0  0  0  0  0  0  0  0  0
   13.6882    7.4247  -11.4628 C   0  0  0  0  0  0  0  0  0  0  0  0
   12.4970    7.7113  -10.5632 C   0  0  0  0  0  0  0  0  0  0  0  0
   12.1147    6.5136   -9.7335 C   0  0  0  0  0  0  0  0  0  0  0  0
   10.9423    6.7779   -8.8407 C   0  0  0  0  0  0  0  0  0  0  0  0
   10.5772    5.5460   -8.0114 C   0  0  0  0  0  0  0  0  0  0  0  0
    9.3916    5.9526   -7.1670 C   0  0  0  0  0  0  0  0  0  0  0  0
    8.9105    4.8453   -6.2906 C   0  0  0  0  0  0  0  0  0  0  0  0
    7.7335    5.2466   -5.4514 C   0  0  0  0  0  0  0  0  0  0  0  0
    7.3047    4.0408   -4.5784 C   0  0  0  0  0  0  0  0  0  0  0  0
    6.1332    4.4785   -3.7592 C   0  0  0  0  0  0  0  0  0  0  0  0
    5.5994    3.4462   -2.8689 C   0  0  0  0  0  0  0  0  0  0  0  0
    4.4601    3.6385   -1.9743 C   0  0  0  0  0  0  0  0  0  0  0  0
    3.9479    2.5794   -1.0918 C   0  0  0  0  0  0  0  0  0  0  0  0
    4.9480    2.1839   -0.1404 O   0  0  0  0  0  0  0  0  0  0  0  0
    5.6197    1.0367   -0.4173 C   0  0  0  0  0  0  0  0  0  0  0  0
    5.4662    0.3225   -1.3941 O   0  0  0  0  0  0  0  0  0  0  0  0
    6.5866    0.8086    0.6731 C   0  0  0  0  0  0  0  0  0  0  0  0
    7.3985   -0.2584    0.6468 C   0  0  0  0  0  0  0  0  0  0  0  0
    8.3756   -0.5576    1.7020 C   0  0  0  0  0  0  0  0  0  0  0  0
    9.1058    0.4273    2.3531 C   0  0  0  0  0  0  0  0  0  0  0  0
   10.0386    0.0763    3.3403 C   0  0  0  0  0  0  0  0  0  0  0  0
   10.3202   -1.2508    3.7406 C   0  0  0  0  0  0  0  0  0  0  0  0
   11.1867   -1.4472    4.6609 O   0  0  0  0  0  0  0  0  0  0  0  0
    9.5727   -2.2368    3.0374 C   0  0  0  0  0  0  0  0  0  0  0  0
    9.6190   -3.6110    3.1837 O   0  0  0  0  0  0  0  0  0  0  0  0
   10.5562   -4.1481    4.1030 C   0  0  0  0  0  0  0  0  0  0  0  0
    8.6303   -1.8849    2.0428 C   0  0  0  0  0  0  0  0  0  0  0  0
  1  2  1  0
  2  3  1  0
  3  4  1  0
  4  5  1  0
  5  6  1  0
  6  7  1  0
  7  8  1  0
  8  9  1  0
  9 10  1  0
 10 11  1  0
 11 12  1  0
 12 13  1  0
 13 14  1  0
 14 15  1  0
 15 16  1  0
 16 17  1  0
 17 18  1  0
 18 19  1  0
 19 20  1  0
 20 21  1  0
 21 22  1  0
 22 23  1  0
 23 24  1  0
 24 25  2  0
 24 26  1  0
 26 27  2  0
 27 28  1  0
 28 29  2  0
 29 30  1  0
 30 31  2  0
 31 32  1  0
 31 33  1  0
 33 34  1  0
 34 35  1  0
 33 36  2  0
 36 28  1  0
M  CHG  1  32  -1
M  END
$$$$
docosanyl_ferulate_conf17.sdf
     RDKit          3D

 36 36  0  0  0  0  0  0  0  0999 V2000
   16.3484  -10.7268  -22.6306 C   0  0  0  0  0  0  0  0  0  0  0  0
   16.5314   -9.6449  -21.6096 C   0  0  0  0  0  0  0  0  0  0  0  0
   15.3206   -9.5840  -20.6737 C   0  0  0  0  0  0  0  0  0  0  0  0
   15.4907   -8.4993  -19.6405 C   0  0  0  0  0  0  0  0  0  0  0  0
   14.2520   -8.4885  -18.7379 C   0  0  0  0  0  0  0  0  0  0  0  0
   14.3833   -7.4153  -17.6891 C   0  0  0  0  0  0  0  0  0  0  0  0
   13.1547   -7.3880  -16.7762 C   0  0  0  0  0  0  0  0  0  0  0  0
   13.2695   -6.3270  -15.7286 C   0  0  0  0  0  0  0  0  0  0  0  0
   12.1004   -6.2385  -14.7931 C   0  0  0  0  0  0  0  0  0  0  0  0
   12.2348   -5.1672  -13.7487 C   0  0  0  0  0  0  0  0  0  0  0  0
   10.9822   -5.2057  -12.8885 C   0  0  0  0  0  0  0  0  0  0  0  0
   11.0119   -4.1645  -11.8006 C   0  0  0  0  0  0  0  0  0  0  0  0
    9.7850   -4.1879  -10.9430 C   0  0  0  0  0  0  0  0  0  0  0  0
    9.8426   -3.1214   -9.8484 C   0  0  0  0  0  0  0  0  0  0  0  0
    8.5553   -3.2590   -9.0688 C   0  0  0  0  0  0  0  0  0  0  0  0
    8.4588   -2.2752   -7.9513 C   0  0  0  0  0  0  0  0  0  0  0  0
    7.1816   -2.4099   -7.1760 C   0  0  0  0  0  0  0  0  0  0  0  0
    7.1686   -1.3543   -6.0422 C   0  0  0  0  0  0  0  0  0  0  0  0
    5.8845   -1.5197   -5.2946 C   0  0  0  0  0  0  0  0  0  0  0  0
    5.7117   -0.5885   -4.1780 C   0  0  0  0  0  0  0  0  0  0  0  0
    4.5409   -0.5585   -3.3040 C   0  0  0  0  0  0  0  0  0  0  0  0
    4.3981    0.3908   -2.1901 C   0  0  0  0  0  0  0  0  0  0  0  0
    5.4357    0.1897   -1.2185 O   0  0  0  0  0  0  0  0  0  0  0  0
    6.4744    1.0594   -1.2510 C   0  0  0  0  0  0  0  0  0  0  0  0
    6.6092    1.9915   -2.0311 O   0  0  0  0  0  0  0  0  0  0  0  0
    7.4779    0.7569   -0.2108 C   0  0  0  0  0  0  0  0  0  0  0  0
    7.3836   -0.2603    0.6597 C   0  0  0  0  0  0  0  0  0  0  0  0
    8.3969   -0.5576    1.6818 C   0  0  0  0  0  0  0  0  0  0  0  0
    9.0976    0.4291    2.3614 C   0  0  0  0  0  0  0  0  0  0  0  0
   10.0294    0.0772    3.3493 C   0  0  0  0  0  0  0  0  0  0  0  0
   10.3237   -1.2511    3.7374 C   0  0  0  0  0  0  0  0  0  0  0  0
   11.1947   -1.4487    4.6531 O   0  0  0  0  0  0  0  0  0  0  0  0
    9.5776   -2.2368    3.0332 C   0  0  0  0  0  0  0  0  0  0  0  0
    9.6238   -3.6112    3.1779 O   0  0  0  0  0  0  0  0  0  0  0  0
   10.5395   -4.1477    4.1192 C   0  0  0  0  0  0  0  0  0  0  0  0
    8.6368   -1.8842    2.0377 C   0  0  0  0  0  0  0  0  0  0  0  0
  1  2  1  0
  2  3  1  0
  3  4  1  0
  4  5  1  0
  5  6  1  0
  6  7  1  0
  7  8  1  0
  8  9  1  0
  9 10  1  0
 10 11  1  0
 11 12  1  0
 12 13  1  0
 13 14  1  0
 14 15  1  0
 15 16  1  0
 16 17  1  0
 17 18  1  0
 18 19  1  0
 19 20  1  0
 20 21  1  0
 21 22  1  0
 22 23  1  0
 23 24  1  0
 24 25  2  0
 24 26  1  0
 26 27  2  0
 27 28  1  0
 28 29  2  0
 29 30  1  0
 30 31  2  0
 31 32  1  0
 31 33  1  0
 33 34  1  0
 34 35  1  0
 33 36  2  0
 36 28  1  0
M  CHG  1  32  -1
M  END
$$$$
docosanyl_ferulate_conf18.sdf
     RDKit          3D

 36 36  0  0  0  0  0  0  0  0999 V2000
  -16.7373   -8.7127    9.4996 C   0  0  0  0  0  0  0  0  0  0  0  0
  -15.6560   -7.6854    9.6483 C   0  0  0  0  0  0  0  0  0  0  0  0
  -14.6854   -7.7573    8.4657 C   0  0  0  0  0  0  0  0  0  0  0  0
  -13.5915   -6.7289    8.6017 C   0  0  0  0  0  0  0  0  0  0  0  0
  -12.6564   -6.8504    7.3934 C   0  0  0  0  0  0  0  0  0  0  0  0
  -11.5465   -5.8368    7.4919 C   0  0  0  0  0  0  0  0  0  0  0  0
  -10.6005   -5.9419    6.2929 C   0  0  0  0  0  0  0  0  0  0  0  0
   -9.4920   -4.9413    6.3757 C   0  0  0  0  0  0  0  0  0  0  0  0
   -8.5213   -4.9831    5.2330 C   0  0  0  0  0  0  0  0  0  0  0  0
   -7.4160   -3.9710    5.3346 C   0  0  0  0  0  0  0  0  0  0  0  0
   -6.5259   -4.1400    4.1140 C   0  0  0  0  0  0  0  0  0  0  0  0
   -5.3762   -3.1668    4.1143 C   0  0  0  0  0  0  0  0  0  0  0  0
   -4.4885   -3.3189    2.9183 C   0  0  0  0  0  0  0  0  0  0  0  0
   -3.3314   -2.3194    2.9453 C   0  0  0  0  0  0  0  0  0  0  0  0
   -2.5271   -2.5845    1.6935 C   0  0  0  0  0  0  0  0  0  0  0  0
   -1.3481   -1.6782    1.5722 C   0  0  0  0  0  0  0  0  0  0  0  0
   -0.5480   -1.9394    0.3304 C   0  0  0  0  0  0  0  0  0  0  0  0
    0.6496   -0.9574    0.2887 C   0  0  0  0  0  0  0  0  0  0  0  0
    1.4201   -1.2479   -0.9590 C   0  0  0  0  0  0  0  0  0  0  0  0
    2.5970   -0.3990   -1.1534 C   0  0  0  0  0  0  0  0  0  0  0  0
    3.5030   -0.4954   -2.2960 C   0  0  0  0  0  0  0  0  0  0  0  0
    4.6775    0.3738   -2.4615 C   0  0  0  0  0  0  0  0  0  0  0  0
    5.6059    0.1794   -1.3838 O   0  0  0  0  0  0  0  0  0  0  0  0
    5.5995    1.1127   -0.4013 C   0  0  0  0  0  0  0  0  0  0  0  0
    4.8758    2.0969   -0.3477 O   0  0  0  0  0  0  0  0  0  0  0  0
    6.5908    0.8109    0.6506 C   0  0  0  0  0  0  0  0  0  0  0  0
    7.3983   -0.2611    0.6454 C   0  0  0  0  0  0  0  0  0  0  0  0
    8.3717   -0.5561    1.7062 C   0  0  0  0  0  0  0  0  0  0  0  0
    9.0924    0.4294    2.3665 C   0  0  0  0  0  0  0  0  0  0  0  0
   10.0305    0.0771    3.3483 C   0  0  0  0  0  0  0  0  0  0  0  0
   10.3265   -1.2513    3.7347 C   0  0  0  0  0  0  0  0  0  0  0  0
   11.2040   -1.4492    4.6442 O   0  0  0  0  0  0  0  0  0  0  0  0
    9.5827   -2.2371    3.0283 C   0  0  0  0  0  0  0  0  0  0  0  0
    9.6399   -3.6121    3.1623 O   0  0  0  0  0  0  0  0  0  0  0  0
   10.5203   -4.1465    4.1377 C   0  0  0  0  0  0  0  0  0  0  0  0
    8.6373   -1.8842    2.0371 C   0  0  0  0  0  0  0  0  0  0  0  0
  1  2  1  0
  2  3  1  0
  3  4  1  0
  4  5  1  0
  5  6  1  0
  6  7  1  0
  7  8  1  0
  8  9  1  0
  9 10  1  0
 10 11  1  0
 11 12  1  0
 12 13  1  0
 13 14  1  0
 14 15  1  0
 15 16  1  0
 16 17  1  0
 17 18  1  0
 18 19  1  0
 19 20  1  0
 20 21  1  0
 21 22  1  0
 22 23  1  0
 23 24  1  0
 24 25  2  0
 24 26  1  0
 26 27  2  0
 27 28  1  0
 28 29  2  0
 29 30  1  0
 30 31  2  0
 31 32  1  0
 31 33  1  0
 33 34  1  0
 34 35  1  0
 33 36  2  0
 36 28  1  0
M  CHG  1  32  -1
M  END
$$$$
