
     RDKit          3D

 33 35  0  0  0  0  0  0  0  0999 V2000
   -3.4640   -0.3378    1.4295 C   0  0  0  0  0  0  0  0  0  0  0  0
   -2.3652   -0.7009    0.5442 N   0  0  0  0  0  0  0  0  0  0  0  0
   -2.0842   -2.0678    0.4244 C   0  0  0  0  0  0  0  0  0  0  0  0
   -2.6731   -2.9227    1.0931 O   0  0  0  0  0  0  0  0  0  0  0  0
   -1.0738   -2.4808   -0.6370 C   0  0  0  0  0  0  0  0  0  0  0  0
    0.2605   -2.0614   -0.2218 N   0  0  0  0  0  0  0  0  0  0  0  0
    0.5284   -0.7992   -0.2329 C   0  0  0  0  0  0  0  0  0  0  0  0
    1.8822   -0.3814    0.2550 C   0  0  0  0  0  0  0  0  0  0  0  0
    2.0614    0.8070    0.9749 C   0  0  0  0  0  0  0  0  0  0  0  0
    3.3356    1.1694    1.4171 C   0  0  0  0  0  0  0  0  0  0  0  0
    4.4288    0.3445    1.1526 C   0  0  0  0  0  0  0  0  0  0  0  0
    4.2513   -0.8490    0.4536 C   0  0  0  0  0  0  0  0  0  0  0  0
    2.9798   -1.2152    0.0095 C   0  0  0  0  0  0  0  0  0  0  0  0
   -0.4208    0.2514   -0.7047 C   0  0  0  0  0  0  0  0  0  0  0  0
    0.0952    1.2351   -1.5694 C   0  0  0  0  0  0  0  0  0  0  0  0
   -0.6972    2.3082   -1.9585 C   0  0  0  0  0  0  0  0  0  0  0  0
   -0.0561    3.5146   -3.0014 Cl  0  0  0  0  0  0  0  0  0  0  0  0
   -2.0020    2.4144   -1.4969 C   0  0  0  0  0  0  0  0  0  0  0  0
   -2.5260    1.4248   -0.6584 C   0  0  0  0  0  0  0  0  0  0  0  0
   -1.7596    0.3096   -0.2674 C   0  0  0  0  0  0  0  0  0  0  0  0
   -3.2961    0.6528    1.8640 H   0  0  0  0  0  0  0  0  0  0  0  0
   -3.5501   -1.0479    2.2580 H   0  0  0  0  0  0  0  0  0  0  0  0
   -4.4003   -0.3556    0.8629 H   0  0  0  0  0  0  0  0  0  0  0  0
   -1.0861   -3.5742   -0.7093 H   0  0  0  0  0  0  0  0  0  0  0  0
   -1.3588   -2.1040   -1.6257 H   0  0  0  0  0  0  0  0  0  0  0  0
    1.2202    1.4507    1.2160 H   0  0  0  0  0  0  0  0  0  0  0  0
    3.4754    2.0909    1.9770 H   0  0  0  0  0  0  0  0  0  0  0  0
    5.4193    0.6258    1.5021 H   0  0  0  0  0  0  0  0  0  0  0  0
    5.1008   -1.4990    0.2596 H   0  0  0  0  0  0  0  0  0  0  0  0
    2.8468   -2.1525   -0.5264 H   0  0  0  0  0  0  0  0  0  0  0  0
    1.1192    1.1690   -1.9316 H   0  0  0  0  0  0  0  0  0  0  0  0
   -2.6262    3.2534   -1.7956 H   0  0  0  0  0  0  0  0  0  0  0  0
   -3.5657    1.5277   -0.3565 H   0  0  0  0  0  0  0  0  0  0  0  0
  1  2  1  0
  2  3  1  0
  3  4  2  0
  3  5  1  0
  5  6  1  0
  6  7  2  0
  7  8  1  0
  8  9  2  0
  9 10  1  0
 10 11  2  0
 11 12  1  0
 12 13  2  0
  7 14  1  0
 14 15  2  0
 15 16  1  0
 16 17  1  0
 16 18  2  0
 18 19  1  0
 19 20  2  0
 20  2  1  0
 13  8  1  0
 20 14  1  0
  1 21  1  0
  1 22  1  0
  1 23  1  0
  5 24  1  0
  5 25  1  0
  9 26  1  0
 10 27  1  0
 11 28  1  0
 12 29  1  0
 13 30  1  0
 15 31  1  0
 18 32  1  0
 19 33  1  0
M  END
$$$$
