
     RDKit          3D

 89 89  0  0  0  0  0  0  0  0999 V2000
  -13.0320   22.2923   -3.3362 C   0  0  0  0  0  0  0  0  0  0  0  0
  -12.5793   21.0490   -4.0403 C   0  0  0  0  0  0  0  0  0  0  0  0
  -11.4650   20.3615   -3.2458 C   0  0  0  0  0  0  0  0  0  0  0  0
  -10.9991   19.1083   -3.9425 C   0  0  0  0  0  0  0  0  0  0  0  0
   -9.8885   18.4686   -3.1021 C   0  0  0  0  0  0  0  0  0  0  0  0
   -9.3947   17.2099   -3.7662 C   0  0  0  0  0  0  0  0  0  0  0  0
   -8.2837   16.5549   -2.9415 C   0  0  0  0  0  0  0  0  0  0  0  0
   -7.7821   15.3030   -3.5879 C   0  0  0  0  0  0  0  0  0  0  0  0
   -6.6891   14.6024   -2.8365 C   0  0  0  0  0  0  0  0  0  0  0  0
   -6.1992   13.3478   -3.5017 C   0  0  0  0  0  0  0  0  0  0  0  0
   -5.1042   12.7619   -2.6253 C   0  0  0  0  0  0  0  0  0  0  0  0
   -4.5378   11.4913   -3.2029 C   0  0  0  0  0  0  0  0  0  0  0  0
   -3.4572   10.8997   -2.3522 C   0  0  0  0  0  0  0  0  0  0  0  0
   -2.9016    9.6122   -2.9624 C   0  0  0  0  0  0  0  0  0  0  0  0
   -1.8320    9.1310   -2.0093 C   0  0  0  0  0  0  0  0  0  0  0  0
   -1.1859    7.8676   -2.4699 C   0  0  0  0  0  0  0  0  0  0  0  0
   -0.1237    7.3879   -1.5253 C   0  0  0  0  0  0  0  0  0  0  0  0
    0.4888    6.0781   -2.0815 C   0  0  0  0  0  0  0  0  0  0  0  0
    1.5396    5.6328   -1.1158 C   0  0  0  0  0  0  0  0  0  0  0  0
    2.2241    4.3955   -1.4960 C   0  0  0  0  0  0  0  0  0  0  0  0
    3.2849    3.7668   -0.7121 C   0  0  0  0  0  0  0  0  0  0  0  0
    3.9524    2.5225   -1.1230 C   0  0  0  0  0  0  0  0  0  0  0  0
    4.9379    2.1768   -0.1407 O   0  0  0  0  0  0  0  0  0  0  0  0
    5.6201    1.0357   -0.4185 C   0  0  0  0  0  0  0  0  0  0  0  0
    5.4639    0.3228   -1.3961 O   0  0  0  0  0  0  0  0  0  0  0  0
    6.5883    0.8100    0.6709 C   0  0  0  0  0  0  0  0  0  0  0  0
    7.3983   -0.2586    0.6467 C   0  0  0  0  0  0  0  0  0  0  0  0
    8.3755   -0.5575    1.7020 C   0  0  0  0  0  0  0  0  0  0  0  0
    9.1056    0.4274    2.3535 C   0  0  0  0  0  0  0  0  0  0  0  0
   10.0384    0.0763    3.3405 C   0  0  0  0  0  0  0  0  0  0  0  0
   10.3204   -1.2508    3.7405 C   0  0  0  0  0  0  0  0  0  0  0  0
   11.1871   -1.4473    4.6606 O   0  0  0  0  0  0  0  0  0  0  0  0
    9.5730   -2.2368    3.0372 C   0  0  0  0  0  0  0  0  0  0  0  0
    9.6195   -3.6110    3.1831 O   0  0  0  0  0  0  0  0  0  0  0  0
   10.5553   -4.1481    4.1039 C   0  0  0  0  0  0  0  0  0  0  0  0
    8.6305   -1.8848    2.0427 C   0  0  0  0  0  0  0  0  0  0  0  0
  -13.4240   22.0659   -2.3391 H   0  0  0  0  0  0  0  0  0  0  0  0
  -13.8286   22.7842   -3.9038 H   0  0  0  0  0  0  0  0  0  0  0  0
  -12.2114   23.0086   -3.2240 H   0  0  0  0  0  0  0  0  0  0  0  0
  -12.2198   21.3045   -5.0439 H   0  0  0  0  0  0  0  0  0  0  0  0
  -13.4275   20.3656   -4.1626 H   0  0  0  0  0  0  0  0  0  0  0  0
  -11.8325   20.1187   -2.2407 H   0  0  0  0  0  0  0  0  0  0  0  0
  -10.6254   21.0570   -3.1215 H   0  0  0  0  0  0  0  0  0  0  0  0
  -10.6220   19.3461   -4.9443 H   0  0  0  0  0  0  0  0  0  0  0  0
  -11.8322   18.4053   -4.0612 H   0  0  0  0  0  0  0  0  0  0  0  0
   -9.0602   19.1774   -2.9805 H   0  0  0  0  0  0  0  0  0  0  0  0
  -10.2683   18.2382   -2.0990 H   0  0  0  0  0  0  0  0  0  0  0  0
  -10.2234   16.5017   -3.8896 H   0  0  0  0  0  0  0  0  0  0  0  0
   -9.0167   17.4398   -4.7701 H   0  0  0  0  0  0  0  0  0  0  0  0
   -7.4570   17.2652   -2.8160 H   0  0  0  0  0  0  0  0  0  0  0  0
   -8.6619   16.3285   -1.9368 H   0  0  0  0  0  0  0  0  0  0  0  0
   -8.6209   14.6075   -3.7229 H   0  0  0  0  0  0  0  0  0  0  0  0
   -7.4219   15.5397   -4.5978 H   0  0  0  0  0  0  0  0  0  0  0  0
   -7.0518   14.3654   -1.8274 H   0  0  0  0  0  0  0  0  0  0  0  0
   -5.8508   15.2991   -2.7038 H   0  0  0  0  0  0  0  0  0  0  0  0
   -7.0186   12.6290   -3.6185 H   0  0  0  0  0  0  0  0  0  0  0  0
   -5.8085   13.5698   -4.5016 H   0  0  0  0  0  0  0  0  0  0  0  0
   -5.5019   12.5584   -1.6227 H   0  0  0  0  0  0  0  0  0  0  0  0
   -4.2968   13.4952   -2.5020 H   0  0  0  0  0  0  0  0  0  0  0  0
   -5.3458   10.7593   -3.3299 H   0  0  0  0  0  0  0  0  0  0  0  0
   -4.1437   11.6938   -4.2070 H   0  0  0  0  0  0  0  0  0  0  0  0
   -2.6477   11.6308   -2.2295 H   0  0  0  0  0  0  0  0  0  0  0  0
   -3.8535   10.6933   -1.3496 H   0  0  0  0  0  0  0  0  0  0  0  0
   -2.4810    9.8075   -3.9554 H   0  0  0  0  0  0  0  0  0  0  0  0
   -3.6949    8.8638   -3.0696 H   0  0  0  0  0  0  0  0  0  0  0  0
   -2.2677    8.9718   -1.0141 H   0  0  0  0  0  0  0  0  0  0  0  0
   -1.0644    9.9073   -1.8922 H   0  0  0  0  0  0  0  0  0  0  0  0
   -0.7489    8.0234   -3.4648 H   0  0  0  0  0  0  0  0  0  0  0  0
   -1.9508    7.0891   -2.5878 H   0  0  0  0  0  0  0  0  0  0  0  0
    0.6589    8.1484   -1.4152 H   0  0  0  0  0  0  0  0  0  0  0  0
   -0.5517    7.2072   -0.5317 H   0  0  0  0  0  0  0  0  0  0  0  0
   -0.2912    5.3151   -2.1884 H   0  0  0  0  0  0  0  0  0  0  0  0
    0.9210    6.2575   -3.0729 H   0  0  0  0  0  0  0  0  0  0  0  0
    1.0902    5.4971   -0.1232 H   0  0  0  0  0  0  0  0  0  0  0  0
    2.2875    6.4279   -0.9969 H   0  0  0  0  0  0  0  0  0  0  0  0
    1.4486    3.6285   -1.6411 H   0  0  0  0  0  0  0  0  0  0  0  0
    2.6334    4.5496   -2.5056 H   0  0  0  0  0  0  0  0  0  0  0  0
    2.8936    3.6065    0.3038 H   0  0  0  0  0  0  0  0  0  0  0  0
    4.0702    4.5213   -0.5548 H   0  0  0  0  0  0  0  0  0  0  0  0
    4.4432    2.6563   -2.0944 H   0  0  0  0  0  0  0  0  0  0  0  0
    3.2230    1.7077   -1.2041 H   0  0  0  0  0  0  0  0  0  0  0  0
    6.5993    1.5282    1.4813 H   0  0  0  0  0  0  0  0  0  0  0  0
    7.3437   -0.9798   -0.1659 H   0  0  0  0  0  0  0  0  0  0  0  0
    8.9842    1.4780    2.1146 H   0  0  0  0  0  0  0  0  0  0  0  0
   10.5872    0.8808    3.8327 H   0  0  0  0  0  0  0  0  0  0  0  0
   11.5855   -3.9075    3.8235 H   0  0  0  0  0  0  0  0  0  0  0  0
   10.3146   -3.8681    5.1340 H   0  0  0  0  0  0  0  0  0  0  0  0
   10.4672   -5.2387    4.0515 H   0  0  0  0  0  0  0  0  0  0  0  0
    8.0919   -2.6878    1.5465 H   0  0  0  0  0  0  0  0  0  0  0  0
  1  2  1  0
  2  3  1  0
  3  4  1  0
  4  5  1  0
  5  6  1  0
  6  7  1  0
  7  8  1  0
  8  9  1  0
  9 10  1  0
 10 11  1  0
 11 12  1  0
 12 13  1  0
 13 14  1  0
 14 15  1  0
 15 16  1  0
 16 17  1  0
 17 18  1  0
 18 19  1  0
 19 20  1  0
 20 21  1  0
 21 22  1  0
 22 23  1  0
 23 24  1  0
 24 25  2  0
 24 26  1  0
 26 27  2  0
 27 28  1  0
 28 29  2  0
 29 30  1  0
 30 31  2  0
 31 32  1  0
 31 33  1  0
 33 34  1  0
 34 35  1  0
 33 36  2  0
 36 28  1  0
  1 37  1  0
  1 38  1  0
  1 39  1  0
  2 40  1  0
  2 41  1  0
  3 42  1  0
  3 43  1  0
  4 44  1  0
  4 45  1  0
  5 46  1  0
  5 47  1  0
  6 48  1  0
  6 49  1  0
  7 50  1  0
  7 51  1  0
  8 52  1  0
  8 53  1  0
  9 54  1  0
  9 55  1  0
 10 56  1  0
 10 57  1  0
 11 58  1  0
 11 59  1  0
 12 60  1  0
 12 61  1  0
 13 62  1  0
 13 63  1  0
 14 64  1  0
 14 65  1  0
 15 66  1  0
 15 67  1  0
 16 68  1  0
 16 69  1  0
 17 70  1  0
 17 71  1  0
 18 72  1  0
 18 73  1  0
 19 74  1  0
 19 75  1  0
 20 76  1  0
 20 77  1  0
 21 78  1  0
 21 79  1  0
 22 80  1  0
 22 81  1  0
 26 82  1  0
 27 83  1  0
 29 84  1  0
 30 85  1  0
 35 86  1  0
 35 87  1  0
 35 88  1  0
 36 89  1  0
M  CHG  1  32  -1
M  END
$$$$
