
     RDKit          3D

 89 89  0  0  0  0  0  0  0  0999 V2000
  -10.2597   18.0279   14.4293 C   0  0  0  0  0  0  0  0  0  0  0  0
   -9.7104   16.6359   14.3445 C   0  0  0  0  0  0  0  0  0  0  0  0
   -8.9230   16.4513   13.0439 C   0  0  0  0  0  0  0  0  0  0  0  0
   -8.3639   15.0547   12.9446 C   0  0  0  0  0  0  0  0  0  0  0  0
   -7.5900   14.9329   11.6273 C   0  0  0  0  0  0  0  0  0  0  0  0
   -7.0140   13.5478   11.4899 C   0  0  0  0  0  0  0  0  0  0  0  0
   -6.2362   13.4055   10.1790 C   0  0  0  0  0  0  0  0  0  0  0  0
   -5.6574   12.0348   10.0273 C   0  0  0  0  0  0  0  0  0  0  0  0
   -4.8790   11.8179    8.7636 C   0  0  0  0  0  0  0  0  0  0  0  0
   -4.3061   10.4357    8.6300 C   0  0  0  0  0  0  0  0  0  0  0  0
   -3.5537   10.3769    7.3106 C   0  0  0  0  0  0  0  0  0  0  0  0
   -2.9342    9.0245    7.0735 C   0  0  0  0  0  0  0  0  0  0  0  0
   -2.1886    8.9482    5.7775 C   0  0  0  0  0  0  0  0  0  0  0  0
   -1.5711    7.5656    5.5637 C   0  0  0  0  0  0  0  0  0  0  0  0
   -0.8579    7.6326    4.2330 C   0  0  0  0  0  0  0  0  0  0  0  0
   -0.1955    6.3441    3.8768 C   0  0  0  0  0  0  0  0  0  0  0  0
    0.5132    6.4082    2.5561 C   0  0  0  0  0  0  0  0  0  0  0  0
    1.1678    5.0335    2.2701 C   0  0  0  0  0  0  0  0  0  0  0  0
    1.8619    5.1369    0.9501 C   0  0  0  0  0  0  0  0  0  0  0  0
    2.5396    3.9101    0.5264 C   0  0  0  0  0  0  0  0  0  0  0  0
    3.2831    3.7695   -0.7239 C   0  0  0  0  0  0  0  0  0  0  0  0
    3.9529    2.5218   -1.1200 C   0  0  0  0  0  0  0  0  0  0  0  0
    4.9241    2.1752   -0.1247 O   0  0  0  0  0  0  0  0  0  0  0  0
    5.5971    1.0244   -0.3832 C   0  0  0  0  0  0  0  0  0  0  0  0
    5.4414    0.3008   -1.3529 O   0  0  0  0  0  0  0  0  0  0  0  0
    6.5501    0.8001    0.7198 C   0  0  0  0  0  0  0  0  0  0  0  0
    7.3489   -0.2771    0.7167 C   0  0  0  0  0  0  0  0  0  0  0  0
    8.3319   -0.5588    1.7713 C   0  0  0  0  0  0  0  0  0  0  0  0
    8.0921   -0.2976    3.1136 C   0  0  0  0  0  0  0  0  0  0  0  0
    9.0644   -0.6068    4.0762 C   0  0  0  0  0  0  0  0  0  0  0  0
   10.3177   -1.1962    3.7884 C   0  0  0  0  0  0  0  0  0  0  0  0
   11.1286   -1.4235    4.7513 O   0  0  0  0  0  0  0  0  0  0  0  0
   10.5220   -1.4726    2.4074 C   0  0  0  0  0  0  0  0  0  0  0  0
   11.6253   -2.0476    1.8041 O   0  0  0  0  0  0  0  0  0  0  0  0
   12.6882   -2.4774    2.6394 C   0  0  0  0  0  0  0  0  0  0  0  0
    9.5435   -1.1600    1.4348 C   0  0  0  0  0  0  0  0  0  0  0  0
   -9.4588   18.7744   14.4152 H   0  0  0  0  0  0  0  0  0  0  0  0
  -10.8227   18.1604   15.3589 H   0  0  0  0  0  0  0  0  0  0  0  0
  -10.9374   18.2408   13.5960 H   0  0  0  0  0  0  0  0  0  0  0  0
  -10.5325   15.9122   14.3897 H   0  0  0  0  0  0  0  0  0  0  0  0
   -9.0599   16.4437   15.2057 H   0  0  0  0  0  0  0  0  0  0  0  0
   -8.1089   17.1860   13.0049 H   0  0  0  0  0  0  0  0  0  0  0  0
   -9.5806   16.6548   12.1894 H   0  0  0  0  0  0  0  0  0  0  0  0
   -9.1739   14.3162   12.9736 H   0  0  0  0  0  0  0  0  0  0  0  0
   -7.6983   14.8488   13.7913 H   0  0  0  0  0  0  0  0  0  0  0  0
   -8.2580   15.1459   10.7835 H   0  0  0  0  0  0  0  0  0  0  0  0
   -6.7849   15.6776   11.5997 H   0  0  0  0  0  0  0  0  0  0  0  0
   -6.3475   13.3339   12.3346 H   0  0  0  0  0  0  0  0  0  0  0  0
   -7.8188   12.8029   11.5193 H   0  0  0  0  0  0  0  0  0  0  0  0
   -6.9029   13.6227    9.3352 H   0  0  0  0  0  0  0  0  0  0  0  0
   -5.4337   14.1530   10.1492 H   0  0  0  0  0  0  0  0  0  0  0  0
   -5.0058   11.8231   10.8852 H   0  0  0  0  0  0  0  0  0  0  0  0
   -6.4678   11.2954   10.0752 H   0  0  0  0  0  0  0  0  0  0  0  0
   -4.0684   12.5573    8.7183 H   0  0  0  0  0  0  0  0  0  0  0  0
   -5.5327   12.0288    7.9069 H   0  0  0  0  0  0  0  0  0  0  0  0
   -3.6291   10.2174    9.4642 H   0  0  0  0  0  0  0  0  0  0  0  0
   -5.1046    9.6849    8.6466 H   0  0  0  0  0  0  0  0  0  0  0  0
   -2.7674   11.1427    7.2984 H   0  0  0  0  0  0  0  0  0  0  0  0
   -4.2368   10.6124    6.4842 H   0  0  0  0  0  0  0  0  0  0  0  0
   -2.2542    8.7872    7.9016 H   0  0  0  0  0  0  0  0  0  0  0  0
   -3.7198    8.2582    7.0895 H   0  0  0  0  0  0  0  0  0  0  0  0
   -2.8705    9.1813    4.9496 H   0  0  0  0  0  0  0  0  0  0  0  0
   -1.4003    9.7119    5.7643 H   0  0  0  0  0  0  0  0  0  0  0  0
   -2.3496    6.7944    5.5514 H   0  0  0  0  0  0  0  0  0  0  0  0
   -0.8695    7.3286    6.3715 H   0  0  0  0  0  0  0  0  0  0  0  0
   -0.1049    8.4314    4.2566 H   0  0  0  0  0  0  0  0  0  0  0  0
   -1.5721    7.9018    3.4436 H   0  0  0  0  0  0  0  0  0  0  0  0
   -0.9458    5.5433    3.8521 H   0  0  0  0  0  0  0  0  0  0  0  0
    0.5196    6.0722    4.6641 H   0  0  0  0  0  0  0  0  0  0  0  0
   -0.1947    6.6580    1.7564 H   0  0  0  0  0  0  0  0  0  0  0  0
    1.2815    7.1908    2.5743 H   0  0  0  0  0  0  0  0  0  0  0  0
    1.8790    4.7839    3.0663 H   0  0  0  0  0  0  0  0  0  0  0  0
    0.4010    4.2503    2.2473 H   0  0  0  0  0  0  0  0  0  0  0  0
    2.5969    5.9519    0.9863 H   0  0  0  0  0  0  0  0  0  0  0  0
    1.1371    5.4250    0.1772 H   0  0  0  0  0  0  0  0  0  0  0  0
    3.2274    3.6301    1.3380 H   0  0  0  0  0  0  0  0  0  0  0  0
    1.7874    3.1070    0.5321 H   0  0  0  0  0  0  0  0  0  0  0  0
    4.0504    4.5575   -0.7207 H   0  0  0  0  0  0  0  0  0  0  0  0
    2.6056    4.0460   -1.5437 H   0  0  0  0  0  0  0  0  0  0  0  0
    4.4570    2.6495   -2.0856 H   0  0  0  0  0  0  0  0  0  0  0  0
    3.2214    1.7095   -1.2085 H   0  0  0  0  0  0  0  0  0  0  0  0
    6.5810    1.5430    1.5071 H   0  0  0  0  0  0  0  0  0  0  0  0
    7.3167   -0.9912   -0.1035 H   0  0  0  0  0  0  0  0  0  0  0  0
    7.1577    0.1365    3.4512 H   0  0  0  0  0  0  0  0  0  0  0  0
    8.8391   -0.3804    5.1196 H   0  0  0  0  0  0  0  0  0  0  0  0
   12.3680   -3.2593    3.3350 H   0  0  0  0  0  0  0  0  0  0  0  0
   13.4434   -2.9324    1.9892 H   0  0  0  0  0  0  0  0  0  0  0  0
   13.1770   -1.6344    3.1372 H   0  0  0  0  0  0  0  0  0  0  0  0
    9.7655   -1.3952    0.3972 H   0  0  0  0  0  0  0  0  0  0  0  0
  1  2  1  0
  2  3  1  0
  3  4  1  0
  4  5  1  0
  5  6  1  0
  6  7  1  0
  7  8  1  0
  8  9  1  0
  9 10  1  0
 10 11  1  0
 11 12  1  0
 12 13  1  0
 13 14  1  0
 14 15  1  0
 15 16  1  0
 16 17  1  0
 17 18  1  0
 18 19  1  0
 19 20  1  0
 20 21  1  0
 21 22  1  0
 22 23  1  0
 23 24  1  0
 24 25  2  0
 24 26  1  0
 26 27  2  0
 27 28  1  0
 28 29  2  0
 29 30  1  0
 30 31  2  0
 31 32  1  0
 31 33  1  0
 33 34  1  0
 34 35  1  0
 33 36  2  0
 36 28  1  0
  1 37  1  0
  1 38  1  0
  1 39  1  0
  2 40  1  0
  2 41  1  0
  3 42  1  0
  3 43  1  0
  4 44  1  0
  4 45  1  0
  5 46  1  0
  5 47  1  0
  6 48  1  0
  6 49  1  0
  7 50  1  0
  7 51  1  0
  8 52  1  0
  8 53  1  0
  9 54  1  0
  9 55  1  0
 10 56  1  0
 10 57  1  0
 11 58  1  0
 11 59  1  0
 12 60  1  0
 12 61  1  0
 13 62  1  0
 13 63  1  0
 14 64  1  0
 14 65  1  0
 15 66  1  0
 15 67  1  0
 16 68  1  0
 16 69  1  0
 17 70  1  0
 17 71  1  0
 18 72  1  0
 18 73  1  0
 19 74  1  0
 19 75  1  0
 20 76  1  0
 20 77  1  0
 21 78  1  0
 21 79  1  0
 22 80  1  0
 22 81  1  0
 26 82  1  0
 27 83  1  0
 29 84  1  0
 30 85  1  0
 35 86  1  0
 35 87  1  0
 35 88  1  0
 36 89  1  0
M  CHG  1  32  -1
M  END
$$$$
