
     RDKit          3D

 89 89  0  0  0  0  0  0  0  0999 V2000
   -4.3725   22.2086    8.4013 C   0  0  0  0  0  0  0  0  0  0  0  0
   -3.3678   21.1200    8.6295 C   0  0  0  0  0  0  0  0  0  0  0  0
   -3.4103   20.1057    7.4827 C   0  0  0  0  0  0  0  0  0  0  0  0
   -2.4043   19.0039    7.6987 C   0  0  0  0  0  0  0  0  0  0  0  0
   -2.4948   18.0249    6.5229 C   0  0  0  0  0  0  0  0  0  0  0  0
   -1.5023   16.9058    6.7015 C   0  0  0  0  0  0  0  0  0  0  0  0
   -1.5771   15.9160    5.5361 C   0  0  0  0  0  0  0  0  0  0  0  0
   -0.5971   14.7980    5.6985 C   0  0  0  0  0  0  0  0  0  0  0  0
   -0.6110   13.7848    4.5926 C   0  0  0  0  0  0  0  0  0  0  0  0
    0.3800   12.6704    4.7741 C   0  0  0  0  0  0  0  0  0  0  0  0
    0.2431   11.7367    3.5826 C   0  0  0  0  0  0  0  0  0  0  0  0
    1.1981   10.5747    3.6630 C   0  0  0  0  0  0  0  0  0  0  0  0
    1.0772    9.6438    2.4967 C   0  0  0  0  0  0  0  0  0  0  0  0
    2.0575    8.4751    2.6051 C   0  0  0  0  0  0  0  0  0  0  0  0
    1.8272    7.6270    1.3756 C   0  0  0  0  0  0  0  0  0  0  0  0
    2.7193    6.4319    1.3334 C   0  0  0  0  0  0  0  0  0  0  0  0
    2.4926    5.5884    0.1137 C   0  0  0  0  0  0  0  0  0  0  0  0
    3.4572    4.3768    0.1544 C   0  0  0  0  0  0  0  0  0  0  0  0
    3.2017    3.5629   -1.0733 C   0  0  0  0  0  0  0  0  0  0  0  0
    4.0397    2.3681   -1.1908 C   0  0  0  0  0  0  0  0  0  0  0  0
    3.9722    1.4204   -2.3011 C   0  0  0  0  0  0  0  0  0  0  0  0
    4.8289    0.2284   -2.3889 C   0  0  0  0  0  0  0  0  0  0  0  0
    6.2131    0.6028   -2.4644 O   0  0  0  0  0  0  0  0  0  0  0  0
    6.9254    0.5042   -1.3126 C   0  0  0  0  0  0  0  0  0  0  0  0
    6.5039    0.1439   -0.2262 O   0  0  0  0  0  0  0  0  0  0  0  0
    8.3089    0.9256   -1.6033 C   0  0  0  0  0  0  0  0  0  0  0  0
    9.2322    0.9377   -0.6307 C   0  0  0  0  0  0  0  0  0  0  0  0
   10.6305    1.3315   -0.8478 C   0  0  0  0  0  0  0  0  0  0  0  0
   10.9983    2.3653   -1.6985 C   0  0  0  0  0  0  0  0  0  0  0  0
   12.3504    2.7064   -1.8493 C   0  0  0  0  0  0  0  0  0  0  0  0
   13.4176    2.0691   -1.1741 C   0  0  0  0  0  0  0  0  0  0  0  0
   14.6138    2.4619   -1.4006 O   0  0  0  0  0  0  0  0  0  0  0  0
   13.0048    1.0310   -0.2924 C   0  0  0  0  0  0  0  0  0  0  0  0
   13.7925    0.2285    0.5123 O   0  0  0  0  0  0  0  0  0  0  0  0
   15.1891    0.4758    0.5302 C   0  0  0  0  0  0  0  0  0  0  0  0
   11.6419    0.6841   -0.1401 C   0  0  0  0  0  0  0  0  0  0  0  0
   -4.1709   22.7488    7.4704 H   0  0  0  0  0  0  0  0  0  0  0  0
   -4.3426   22.9340    9.2208 H   0  0  0  0  0  0  0  0  0  0  0  0
   -5.3901   21.8077    8.3479 H   0  0  0  0  0  0  0  0  0  0  0  0
   -3.5789   20.6177    9.5807 H   0  0  0  0  0  0  0  0  0  0  0  0
   -2.3647   21.5550    8.7067 H   0  0  0  0  0  0  0  0  0  0  0  0
   -3.2069   20.6203    6.5351 H   0  0  0  0  0  0  0  0  0  0  0  0
   -4.4204   19.6835    7.4086 H   0  0  0  0  0  0  0  0  0  0  0  0
   -2.6082   18.4797    8.6400 H   0  0  0  0  0  0  0  0  0  0  0  0
   -1.3915   19.4190    7.7642 H   0  0  0  0  0  0  0  0  0  0  0  0
   -3.5111   17.6170    6.4572 H   0  0  0  0  0  0  0  0  0  0  0  0
   -2.2965   18.5546    5.5829 H   0  0  0  0  0  0  0  0  0  0  0  0
   -0.4862   17.3138    6.7692 H   0  0  0  0  0  0  0  0  0  0  0  0
   -1.6994   16.3772    7.6425 H   0  0  0  0  0  0  0  0  0  0  0  0
   -2.5945   15.5112    5.4675 H   0  0  0  0  0  0  0  0  0  0  0  0
   -1.3831   16.4464    4.5955 H   0  0  0  0  0  0  0  0  0  0  0  0
    0.4145   15.2165    5.7826 H   0  0  0  0  0  0  0  0  0  0  0  0
   -0.7909   14.2859    6.6503 H   0  0  0  0  0  0  0  0  0  0  0  0
   -0.4156   14.2987    3.6420 H   0  0  0  0  0  0  0  0  0  0  0  0
   -1.6230   13.3665    4.5112 H   0  0  0  0  0  0  0  0  0  0  0  0
    1.4000   13.0680    4.8309 H   0  0  0  0  0  0  0  0  0  0  0  0
    0.1834   12.1288    5.7067 H   0  0  0  0  0  0  0  0  0  0  0  0
    0.4262   12.2925    2.6539 H   0  0  0  0  0  0  0  0  0  0  0  0
   -0.7853   11.3572    3.5260 H   0  0  0  0  0  0  0  0  0  0  0  0
    2.2262   10.9540    3.7236 H   0  0  0  0  0  0  0  0  0  0  0  0
    1.0177   10.0211    4.5935 H   0  0  0  0  0  0  0  0  0  0  0  0
    0.0499    9.2614    2.4397 H   0  0  0  0  0  0  0  0  0  0  0  0
    1.2622   10.1973    1.5671 H   0  0  0  0  0  0  0  0  0  0  0  0
    1.8694    7.8988    3.5181 H   0  0  0  0  0  0  0  0  0  0  0  0
    3.0899    8.8410    2.6396 H   0  0  0  0  0  0  0  0  0  0  0  0
    1.9901    8.2313    0.4735 H   0  0  0  0  0  0  0  0  0  0  0  0
    0.7803    7.2974    1.3443 H   0  0  0  0  0  0  0  0  0  0  0  0
    2.5588    5.8252    2.2341 H   0  0  0  0  0  0  0  0  0  0  0  0
    3.7671    6.7580    1.3643 H   0  0  0  0  0  0  0  0  0  0  0  0
    1.4539    5.2374    0.0817 H   0  0  0  0  0  0  0  0  0  0  0  0
    2.6711    6.1771   -0.7944 H   0  0  0  0  0  0  0  0  0  0  0  0
    4.4963    4.7254    0.1822 H   0  0  0  0  0  0  0  0  0  0  0  0
    3.2777    3.7845    1.0594 H   0  0  0  0  0  0  0  0  0  0  0  0
    3.3503    4.1878   -1.9639 H   0  0  0  0  0  0  0  0  0  0  0  0
    2.1471    3.2581   -1.0970 H   0  0  0  0  0  0  0  0  0  0  0  0
    5.0825    2.7113   -1.1281 H   0  0  0  0  0  0  0  0  0  0  0  0
    3.8984    1.7812   -0.2710 H   0  0  0  0  0  0  0  0  0  0  0  0
    4.1385    2.0028   -3.2190 H   0  0  0  0  0  0  0  0  0  0  0  0
    2.9316    1.0753   -2.3766 H   0  0  0  0  0  0  0  0  0  0  0  0
    4.6092   -0.3274   -3.3076 H   0  0  0  0  0  0  0  0  0  0  0  0
    4.6409   -0.4660   -1.5616 H   0  0  0  0  0  0  0  0  0  0  0  0
    8.5383    1.2049   -2.6241 H   0  0  0  0  0  0  0  0  0  0  0  0
    8.9801    0.6235    0.3799 H   0  0  0  0  0  0  0  0  0  0  0  0
   10.2616    2.9351   -2.2536 H   0  0  0  0  0  0  0  0  0  0  0  0
   12.5978    3.5208   -2.5321 H   0  0  0  0  0  0  0  0  0  0  0  0
   15.4196    1.4793    0.9013 H   0  0  0  0  0  0  0  0  0  0  0  0
   15.6303   -0.2271    1.2452 H   0  0  0  0  0  0  0  0  0  0  0  0
   15.6499    0.2606   -0.4387 H   0  0  0  0  0  0  0  0  0  0  0  0
   11.3963   -0.1207    0.5478 H   0  0  0  0  0  0  0  0  0  0  0  0
  1  2  1  0
  2  3  1  0
  3  4  1  0
  4  5  1  0
  5  6  1  0
  6  7  1  0
  7  8  1  0
  8  9  1  0
  9 10  1  0
 10 11  1  0
 11 12  1  0
 12 13  1  0
 13 14  1  0
 14 15  1  0
 15 16  1  0
 16 17  1  0
 17 18  1  0
 18 19  1  0
 19 20  1  0
 20 21  1  0
 21 22  1  0
 22 23  1  0
 23 24  1  0
 24 25  2  0
 24 26  1  0
 26 27  2  0
 27 28  1  0
 28 29  2  0
 29 30  1  0
 30 31  2  0
 31 32  1  0
 31 33  1  0
 33 34  1  0
 34 35  1  0
 33 36  2  0
 36 28  1  0
  1 37  1  0
  1 38  1  0
  1 39  1  0
  2 40  1  0
  2 41  1  0
  3 42  1  0
  3 43  1  0
  4 44  1  0
  4 45  1  0
  5 46  1  0
  5 47  1  0
  6 48  1  0
  6 49  1  0
  7 50  1  0
  7 51  1  0
  8 52  1  0
  8 53  1  0
  9 54  1  0
  9 55  1  0
 10 56  1  0
 10 57  1  0
 11 58  1  0
 11 59  1  0
 12 60  1  0
 12 61  1  0
 13 62  1  0
 13 63  1  0
 14 64  1  0
 14 65  1  0
 15 66  1  0
 15 67  1  0
 16 68  1  0
 16 69  1  0
 17 70  1  0
 17 71  1  0
 18 72  1  0
 18 73  1  0
 19 74  1  0
 19 75  1  0
 20 76  1  0
 20 77  1  0
 21 78  1  0
 21 79  1  0
 22 80  1  0
 22 81  1  0
 26 82  1  0
 27 83  1  0
 29 84  1  0
 30 85  1  0
 35 86  1  0
 35 87  1  0
 35 88  1  0
 36 89  1  0
M  CHG  1  32  -1
M  END
$$$$
