
     RDKit          3D

 89 89  0  0  0  0  0  0  0  0999 V2000
   -0.5987  -25.2900   -4.2244 C   0  0  0  0  0  0  0  0  0  0  0  0
    0.5559  -24.3349   -4.1881 C   0  0  0  0  0  0  0  0  0  0  0  0
    0.0527  -22.8943   -4.0570 C   0  0  0  0  0  0  0  0  0  0  0  0
    1.2039  -21.9215   -4.0193 C   0  0  0  0  0  0  0  0  0  0  0  0
    0.6383  -20.5031   -3.8878 C   0  0  0  0  0  0  0  0  0  0  0  0
    1.7601  -19.4987   -3.8465 C   0  0  0  0  0  0  0  0  0  0  0  0
    1.2154  -18.0740   -3.7153 C   0  0  0  0  0  0  0  0  0  0  0  0
    2.3176  -17.0640   -3.6729 C   0  0  0  0  0  0  0  0  0  0  0  0
    1.8611  -15.6409   -3.5448 C   0  0  0  0  0  0  0  0  0  0  0  0
    2.9824  -14.6422   -3.5039 C   0  0  0  0  0  0  0  0  0  0  0  0
    2.3615  -13.2609   -3.3735 C   0  0  0  0  0  0  0  0  0  0  0  0
    3.4044  -12.1754   -3.3231 C   0  0  0  0  0  0  0  0  0  0  0  0
    2.8105  -10.8071   -3.1947 C   0  0  0  0  0  0  0  0  0  0  0  0
    3.8914   -9.7264   -3.1460 C   0  0  0  0  0  0  0  0  0  0  0  0
    3.1564   -8.4121   -3.0170 C   0  0  0  0  0  0  0  0  0  0  0  0
    4.0838   -7.2450   -2.9563 C   0  0  0  0  0  0  0  0  0  0  0  0
    3.3565   -5.9392   -2.8282 C   0  0  0  0  0  0  0  0  0  0  0  0
    4.3938   -4.7899   -2.7726 C   0  0  0  0  0  0  0  0  0  0  0  0
    3.6330   -3.5093   -2.6454 C   0  0  0  0  0  0  0  0  0  0  0  0
    4.4729   -2.3118   -2.5792 C   0  0  0  0  0  0  0  0  0  0  0  0
    3.9576   -0.9501   -2.4540 C   0  0  0  0  0  0  0  0  0  0  0  0
    4.8297    0.2323   -2.3902 C   0  0  0  0  0  0  0  0  0  0  0  0
    5.7995    0.1009   -1.3404 O   0  0  0  0  0  0  0  0  0  0  0  0
    5.4091    0.5233   -0.1132 C   0  0  0  0  0  0  0  0  0  0  0  0
    4.3225    1.0098    0.1664 O   0  0  0  0  0  0  0  0  0  0  0  0
    6.4663    0.3281    0.8988 C   0  0  0  0  0  0  0  0  0  0  0  0
    7.6649   -0.2198    0.6448 C   0  0  0  0  0  0  0  0  0  0  0  0
    8.7034   -0.4224    1.6647 C   0  0  0  0  0  0  0  0  0  0  0  0
    8.9346    0.4759    2.6973 C   0  0  0  0  0  0  0  0  0  0  0  0
    9.9641    0.2380    3.6201 C   0  0  0  0  0  0  0  0  0  0  0  0
   10.8309   -0.8797    3.5840 C   0  0  0  0  0  0  0  0  0  0  0  0
   11.7351   -0.9893    4.4821 O   0  0  0  0  0  0  0  0  0  0  0  0
   10.5775   -1.7718    2.5051 C   0  0  0  0  0  0  0  0  0  0  0  0
   11.2425   -2.9417    2.1873 O   0  0  0  0  0  0  0  0  0  0  0  0
   12.3016   -3.3534    3.0365 C   0  0  0  0  0  0  0  0  0  0  0  0
    9.5410   -1.5332    1.5729 C   0  0  0  0  0  0  0  0  0  0  0  0
   -1.1971  -25.2275   -3.3095 H   0  0  0  0  0  0  0  0  0  0  0  0
   -0.2396  -26.3200   -4.3181 H   0  0  0  0  0  0  0  0  0  0  0  0
   -1.2572  -25.0878   -5.0756 H   0  0  0  0  0  0  0  0  0  0  0  0
    1.1506  -24.4413   -5.1028 H   0  0  0  0  0  0  0  0  0  0  0  0
    1.2105  -24.5804   -3.3438 H   0  0  0  0  0  0  0  0  0  0  0  0
   -0.5484  -22.8013   -3.1438 H   0  0  0  0  0  0  0  0  0  0  0  0
   -0.6082  -22.6623   -4.9017 H   0  0  0  0  0  0  0  0  0  0  0  0
    1.8031  -22.0033   -4.9339 H   0  0  0  0  0  0  0  0  0  0  0  0
    1.8630  -22.1427   -3.1714 H   0  0  0  0  0  0  0  0  0  0  0  0
   -0.0254  -20.2884   -4.7345 H   0  0  0  0  0  0  0  0  0  0  0  0
    0.0344  -20.4276   -2.9750 H   0  0  0  0  0  0  0  0  0  0  0  0
    2.4250  -19.7144   -3.0009 H   0  0  0  0  0  0  0  0  0  0  0  0
    2.3652  -19.5754   -4.7584 H   0  0  0  0  0  0  0  0  0  0  0  0
    0.5482  -17.8606   -4.5596 H   0  0  0  0  0  0  0  0  0  0  0  0
    0.6079  -17.9994   -2.8048 H   0  0  0  0  0  0  0  0  0  0  0  0
    2.9870  -17.2978   -2.8346 H   0  0  0  0  0  0  0  0  0  0  0  0
    2.9276  -17.1597   -4.5808 H   0  0  0  0  0  0  0  0  0  0  0  0
    1.2524  -15.5471   -2.6356 H   0  0  0  0  0  0  0  0  0  0  0  0
    1.1929  -15.4087   -4.3847 H   0  0  0  0  0  0  0  0  0  0  0  0
    3.6458  -14.8430   -2.6546 H   0  0  0  0  0  0  0  0  0  0  0  0
    3.5858  -14.7036   -4.4171 H   0  0  0  0  0  0  0  0  0  0  0  0
    1.7472  -13.2156   -2.4650 H   0  0  0  0  0  0  0  0  0  0  0  0
    1.6875  -13.0768   -4.2201 H   0  0  0  0  0  0  0  0  0  0  0  0
    4.0808  -12.3615   -2.4791 H   0  0  0  0  0  0  0  0  0  0  0  0
    4.0213  -12.2231   -4.2297 H   0  0  0  0  0  0  0  0  0  0  0  0
    2.1377  -10.6201   -4.0416 H   0  0  0  0  0  0  0  0  0  0  0  0
    2.1975  -10.7590   -2.2855 H   0  0  0  0  0  0  0  0  0  0  0  0
    4.4975   -9.7472   -4.0588 H   0  0  0  0  0  0  0  0  0  0  0  0
    4.5576   -9.8870   -2.2908 H   0  0  0  0  0  0  0  0  0  0  0  0
    2.5319   -8.4246   -2.1140 H   0  0  0  0  0  0  0  0  0  0  0  0
    2.4723   -8.2859   -3.8665 H   0  0  0  0  0  0  0  0  0  0  0  0
    4.7097   -7.2296   -3.8580 H   0  0  0  0  0  0  0  0  0  0  0  0
    4.7692   -7.3680   -2.1076 H   0  0  0  0  0  0  0  0  0  0  0  0
    2.6835   -5.7934   -3.6819 H   0  0  0  0  0  0  0  0  0  0  0  0
    2.7435   -5.9329   -1.9187 H   0  0  0  0  0  0  0  0  0  0  0  0
    5.0650   -4.9314   -1.9173 H   0  0  0  0  0  0  0  0  0  0  0  0
    5.0050   -4.7917   -3.6828 H   0  0  0  0  0  0  0  0  0  0  0  0
    3.0007   -3.5471   -1.7485 H   0  0  0  0  0  0  0  0  0  0  0  0
    2.9413   -3.4091   -3.4923 H   0  0  0  0  0  0  0  0  0  0  0  0
    5.1758   -2.4630   -1.7465 H   0  0  0  0  0  0  0  0  0  0  0  0
    5.1175   -2.3191   -3.4709 H   0  0  0  0  0  0  0  0  0  0  0  0
    3.3263   -0.9386   -1.5541 H   0  0  0  0  0  0  0  0  0  0  0  0
    3.2531   -0.7849   -3.2811 H   0  0  0  0  0  0  0  0  0  0  0  0
    4.2576    1.1616   -2.2789 H   0  0  0  0  0  0  0  0  0  0  0  0
    5.3970    0.3336   -3.3221 H   0  0  0  0  0  0  0  0  0  0  0  0
    6.1888    0.6534    1.8953 H   0  0  0  0  0  0  0  0  0  0  0  0
    7.9231   -0.5708   -0.3510 H   0  0  0  0  0  0  0  0  0  0  0  0
    8.3442    1.3783    2.8108 H   0  0  0  0  0  0  0  0  0  0  0  0
   10.1115    0.9672    4.4185 H   0  0  0  0  0  0  0  0  0  0  0  0
   13.1361   -2.6458    3.0147 H   0  0  0  0  0  0  0  0  0  0  0  0
   11.9488   -3.5697    4.0496 H   0  0  0  0  0  0  0  0  0  0  0  0
   12.6863   -4.2973    2.6351 H   0  0  0  0  0  0  0  0  0  0  0  0
    9.4037   -2.2550    0.7722 H   0  0  0  0  0  0  0  0  0  0  0  0
  1  2  1  0
  2  3  1  0
  3  4  1  0
  4  5  1  0
  5  6  1  0
  6  7  1  0
  7  8  1  0
  8  9  1  0
  9 10  1  0
 10 11  1  0
 11 12  1  0
 12 13  1  0
 13 14  1  0
 14 15  1  0
 15 16  1  0
 16 17  1  0
 17 18  1  0
 18 19  1  0
 19 20  1  0
 20 21  1  0
 21 22  1  0
 22 23  1  0
 23 24  1  0
 24 25  2  0
 24 26  1  0
 26 27  2  0
 27 28  1  0
 28 29  2  0
 29 30  1  0
 30 31  2  0
 31 32  1  0
 31 33  1  0
 33 34  1  0
 34 35  1  0
 33 36  2  0
 36 28  1  0
  1 37  1  0
  1 38  1  0
  1 39  1  0
  2 40  1  0
  2 41  1  0
  3 42  1  0
  3 43  1  0
  4 44  1  0
  4 45  1  0
  5 46  1  0
  5 47  1  0
  6 48  1  0
  6 49  1  0
  7 50  1  0
  7 51  1  0
  8 52  1  0
  8 53  1  0
  9 54  1  0
  9 55  1  0
 10 56  1  0
 10 57  1  0
 11 58  1  0
 11 59  1  0
 12 60  1  0
 12 61  1  0
 13 62  1  0
 13 63  1  0
 14 64  1  0
 14 65  1  0
 15 66  1  0
 15 67  1  0
 16 68  1  0
 16 69  1  0
 17 70  1  0
 17 71  1  0
 18 72  1  0
 18 73  1  0
 19 74  1  0
 19 75  1  0
 20 76  1  0
 20 77  1  0
 21 78  1  0
 21 79  1  0
 22 80  1  0
 22 81  1  0
 26 82  1  0
 27 83  1  0
 29 84  1  0
 30 85  1  0
 35 86  1  0
 35 87  1  0
 35 88  1  0
 36 89  1  0
M  CHG  1  32  -1
M  END
$$$$
