
     RDKit          3D

 89 89  0  0  0  0  0  0  0  0999 V2000
  -13.8431  -15.2074  -12.2501 C   0  0  0  0  0  0  0  0  0  0  0  0
  -13.1503  -13.9008  -12.4936 C   0  0  0  0  0  0  0  0  0  0  0  0
  -12.0914  -13.6493  -11.4160 C   0  0  0  0  0  0  0  0  0  0  0  0
  -11.3856  -12.3375  -11.6481 C   0  0  0  0  0  0  0  0  0  0  0  0
  -10.3427  -12.1437  -10.5419 C   0  0  0  0  0  0  0  0  0  0  0  0
   -9.6135  -10.8403  -10.7386 C   0  0  0  0  0  0  0  0  0  0  0  0
   -8.5661  -10.6277   -9.6426 C   0  0  0  0  0  0  0  0  0  0  0  0
   -7.8327   -9.3369   -9.8236 C   0  0  0  0  0  0  0  0  0  0  0  0
   -6.7869   -9.0575   -8.7852 C   0  0  0  0  0  0  0  0  0  0  0  0
   -6.0620   -7.7570   -8.9845 C   0  0  0  0  0  0  0  0  0  0  0  0
   -5.0458   -7.6220   -7.8621 C   0  0  0  0  0  0  0  0  0  0  0  0
   -4.2567   -6.3431   -7.9656 C   0  0  0  0  0  0  0  0  0  0  0  0
   -3.2503   -6.1932   -6.8674 C   0  0  0  0  0  0  0  0  0  0  0  0
   -2.4650   -4.8875   -6.9977 C   0  0  0  0  0  0  0  0  0  0  0  0
   -1.4973   -4.8694   -5.8370 C   0  0  0  0  0  0  0  0  0  0  0  0
   -0.6477   -3.6430   -5.8234 C   0  0  0  0  0  0  0  0  0  0  0  0
    0.3137   -3.6229   -4.6721 C   0  0  0  0  0  0  0  0  0  0  0  0
    1.1497   -2.3202   -4.7384 C   0  0  0  0  0  0  0  0  0  0  0  0
    2.0928   -2.3368   -3.5787 C   0  0  0  0  0  0  0  0  0  0  0  0
    2.9653   -1.1639   -3.4928 C   0  0  0  0  0  0  0  0  0  0  0  0
    3.9663   -0.9569   -2.4486 C   0  0  0  0  0  0  0  0  0  0  0  0
    4.8274    0.2340   -2.3916 C   0  0  0  0  0  0  0  0  0  0  0  0
    5.7509    0.1446   -1.2957 O   0  0  0  0  0  0  0  0  0  0  0  0
    5.3200    0.6449   -0.1117 C   0  0  0  0  0  0  0  0  0  0  0  0
    4.2273    1.1527    0.0976 O   0  0  0  0  0  0  0  0  0  0  0  0
    6.3392    0.5106    0.9481 C   0  0  0  0  0  0  0  0  0  0  0  0
    7.5501   -0.0399    0.7691 C   0  0  0  0  0  0  0  0  0  0  0  0
    8.5511   -0.1773    1.8363 C   0  0  0  0  0  0  0  0  0  0  0  0
    8.7361    0.7770    2.8271 C   0  0  0  0  0  0  0  0  0  0  0  0
    9.7323    0.5992    3.7988 C   0  0  0  0  0  0  0  0  0  0  0  0
   10.6090   -0.5098    3.8548 C   0  0  0  0  0  0  0  0  0  0  0  0
   11.4798   -0.5622    4.7903 O   0  0  0  0  0  0  0  0  0  0  0  0
   10.4036   -1.4608    2.8167 C   0  0  0  0  0  0  0  0  0  0  0  0
   11.0897   -2.6390    2.5869 O   0  0  0  0  0  0  0  0  0  0  0  0
   12.1200   -2.9937    3.4952 C   0  0  0  0  0  0  0  0  0  0  0  0
    9.4007   -1.2829    1.8354 C   0  0  0  0  0  0  0  0  0  0  0  0
  -13.1370  -16.0440  -12.2744 H   0  0  0  0  0  0  0  0  0  0  0  0
  -14.6001  -15.3877  -13.0202 H   0  0  0  0  0  0  0  0  0  0  0  0
  -14.3474  -15.2166  -11.2782 H   0  0  0  0  0  0  0  0  0  0  0  0
  -13.8858  -13.0881  -12.4917 H   0  0  0  0  0  0  0  0  0  0  0  0
  -12.6804  -13.9122  -13.4839 H   0  0  0  0  0  0  0  0  0  0  0  0
  -11.3660  -14.4726  -11.4206 H   0  0  0  0  0  0  0  0  0  0  0  0
  -12.5708  -13.6490  -10.4290 H   0  0  0  0  0  0  0  0  0  0  0  0
  -12.1045  -11.5096  -11.6353 H   0  0  0  0  0  0  0  0  0  0  0  0
  -10.8966  -12.3354  -12.6295 H   0  0  0  0  0  0  0  0  0  0  0  0
  -10.8353  -12.1528   -9.5618 H   0  0  0  0  0  0  0  0  0  0  0  0
   -9.6295  -12.9771  -10.5543 H   0  0  0  0  0  0  0  0  0  0  0  0
   -9.1223  -10.8303  -11.7195 H   0  0  0  0  0  0  0  0  0  0  0  0
  -10.3268  -10.0068  -10.7282 H   0  0  0  0  0  0  0  0  0  0  0  0
   -9.0579  -10.6411   -8.6620 H   0  0  0  0  0  0  0  0  0  0  0  0
   -7.8552  -11.4633   -9.6519 H   0  0  0  0  0  0  0  0  0  0  0  0
   -7.3590   -9.3288  -10.8142 H   0  0  0  0  0  0  0  0  0  0  0  0
   -8.5558   -8.5107   -9.8291 H   0  0  0  0  0  0  0  0  0  0  0  0
   -6.0641   -9.8841   -8.7823 H   0  0  0  0  0  0  0  0  0  0  0  0
   -7.2629   -9.0646   -7.7957 H   0  0  0  0  0  0  0  0  0  0  0  0
   -5.5580   -7.7426   -9.9579 H   0  0  0  0  0  0  0  0  0  0  0  0
   -6.7658   -6.9169   -8.9638 H   0  0  0  0  0  0  0  0  0  0  0  0
   -4.3563   -8.4758   -7.8825 H   0  0  0  0  0  0  0  0  0  0  0  0
   -5.5592   -7.6535   -6.8924 H   0  0  0  0  0  0  0  0  0  0  0  0
   -3.7465   -6.3097   -8.9368 H   0  0  0  0  0  0  0  0  0  0  0  0
   -4.9463   -5.4894   -7.9493 H   0  0  0  0  0  0  0  0  0  0  0  0
   -3.7620   -6.2222   -5.8967 H   0  0  0  0  0  0  0  0  0  0  0  0
   -2.5584   -7.0451   -6.8873 H   0  0  0  0  0  0  0  0  0  0  0  0
   -3.1412   -4.0261   -6.9561 H   0  0  0  0  0  0  0  0  0  0  0  0
   -1.9296   -4.8545   -7.9534 H   0  0  0  0  0  0  0  0  0  0  0  0
   -0.8510   -5.7560   -5.8803 H   0  0  0  0  0  0  0  0  0  0  0  0
   -2.0521   -4.9349   -4.8918 H   0  0  0  0  0  0  0  0  0  0  0  0
   -1.2910   -2.7546   -5.7799 H   0  0  0  0  0  0  0  0  0  0  0  0
   -0.0914   -3.5747   -6.7673 H   0  0  0  0  0  0  0  0  0  0  0  0
   -0.2307   -3.6687   -3.7210 H   0  0  0  0  0  0  0  0  0  0  0  0
    0.9777   -4.4949   -4.7156 H   0  0  0  0  0  0  0  0  0  0  0  0
    1.6981   -2.2743   -5.6866 H   0  0  0  0  0  0  0  0  0  0  0  0
    0.4882   -1.4472   -4.6907 H   0  0  0  0  0  0  0  0  0  0  0  0
    2.7174   -3.2386   -3.6280 H   0  0  0  0  0  0  0  0  0  0  0  0
    1.5222   -2.4216   -2.6444 H   0  0  0  0  0  0  0  0  0  0  0  0
    3.4967   -1.0853   -4.4530 H   0  0  0  0  0  0  0  0  0  0  0  0
    2.3142   -0.2771   -3.4792 H   0  0  0  0  0  0  0  0  0  0  0  0
    4.6280   -1.8359   -2.4469 H   0  0  0  0  0  0  0  0  0  0  0  0
    3.4491   -1.0403   -1.4818 H   0  0  0  0  0  0  0  0  0  0  0  0
    4.2443    1.1612   -2.3373 H   0  0  0  0  0  0  0  0  0  0  0  0
    5.4332    0.3077   -3.3015 H   0  0  0  0  0  0  0  0  0  0  0  0
    6.0230    0.8881    1.9142 H   0  0  0  0  0  0  0  0  0  0  0  0
    7.8480   -0.4413   -0.1961 H   0  0  0  0  0  0  0  0  0  0  0  0
    8.1347    1.6782    2.8701 H   0  0  0  0  0  0  0  0  0  0  0  0
    9.8436    1.3714    4.5617 H   0  0  0  0  0  0  0  0  0  0  0  0
   12.9486   -2.2795    3.4662 H   0  0  0  0  0  0  0  0  0  0  0  0
   11.7316   -3.1594    4.5049 H   0  0  0  0  0  0  0  0  0  0  0  0
   12.5274   -3.9535    3.1594 H   0  0  0  0  0  0  0  0  0  0  0  0
    9.2996   -2.0477    1.0700 H   0  0  0  0  0  0  0  0  0  0  0  0
  1  2  1  0
  2  3  1  0
  3  4  1  0
  4  5  1  0
  5  6  1  0
  6  7  1  0
  7  8  1  0
  8  9  1  0
  9 10  1  0
 10 11  1  0
 11 12  1  0
 12 13  1  0
 13 14  1  0
 14 15  1  0
 15 16  1  0
 16 17  1  0
 17 18  1  0
 18 19  1  0
 19 20  1  0
 20 21  1  0
 21 22  1  0
 22 23  1  0
 23 24  1  0
 24 25  2  0
 24 26  1  0
 26 27  2  0
 27 28  1  0
 28 29  2  0
 29 30  1  0
 30 31  2  0
 31 32  1  0
 31 33  1  0
 33 34  1  0
 34 35  1  0
 33 36  2  0
 36 28  1  0
  1 37  1  0
  1 38  1  0
  1 39  1  0
  2 40  1  0
  2 41  1  0
  3 42  1  0
  3 43  1  0
  4 44  1  0
  4 45  1  0
  5 46  1  0
  5 47  1  0
  6 48  1  0
  6 49  1  0
  7 50  1  0
  7 51  1  0
  8 52  1  0
  8 53  1  0
  9 54  1  0
  9 55  1  0
 10 56  1  0
 10 57  1  0
 11 58  1  0
 11 59  1  0
 12 60  1  0
 12 61  1  0
 13 62  1  0
 13 63  1  0
 14 64  1  0
 14 65  1  0
 15 66  1  0
 15 67  1  0
 16 68  1  0
 16 69  1  0
 17 70  1  0
 17 71  1  0
 18 72  1  0
 18 73  1  0
 19 74  1  0
 19 75  1  0
 20 76  1  0
 20 77  1  0
 21 78  1  0
 21 79  1  0
 22 80  1  0
 22 81  1  0
 26 82  1  0
 27 83  1  0
 29 84  1  0
 30 85  1  0
 35 86  1  0
 35 87  1  0
 35 88  1  0
 36 89  1  0
M  CHG  1  32  -1
M  END
$$$$
