
     RDKit          3D

 89 89  0  0  0  0  0  0  0  0999 V2000
   12.9549   10.9559  -24.8178 C   0  0  0  0  0  0  0  0  0  0  0  0
   12.0317   11.2059  -23.6638 C   0  0  0  0  0  0  0  0  0  0  0  0
   12.0994   10.0464  -22.6654 C   0  0  0  0  0  0  0  0  0  0  0  0
   11.1752   10.2841  -21.4982 C   0  0  0  0  0  0  0  0  0  0  0  0
   11.2875    9.0944  -20.5385 C   0  0  0  0  0  0  0  0  0  0  0  0
   10.3767    9.2941  -19.3554 C   0  0  0  0  0  0  0  0  0  0  0  0
   10.4743    8.1151  -18.3837 C   0  0  0  0  0  0  0  0  0  0  0  0
    9.5753    8.2982  -17.2026 C   0  0  0  0  0  0  0  0  0  0  0  0
    9.6158    7.1806  -16.2030 C   0  0  0  0  0  0  0  0  0  0  0  0
    8.7063    7.3831  -15.0247 C   0  0  0  0  0  0  0  0  0  0  0  0
    8.8613    6.1766  -14.1133 C   0  0  0  0  0  0  0  0  0  0  0  0
    7.9872    6.2764  -12.8907 C   0  0  0  0  0  0  0  0  0  0  0  0
    8.1270    5.0956  -11.9809 C   0  0  0  0  0  0  0  0  0  0  0  0
    7.2291    5.2241  -10.7497 C   0  0  0  0  0  0  0  0  0  0  0  0
    7.4703    3.9774   -9.9302 C   0  0  0  0  0  0  0  0  0  0  0  0
    6.6567    3.9520   -8.6798 C   0  0  0  0  0  0  0  0  0  0  0  0
    6.8944    2.7153   -7.8646 C   0  0  0  0  0  0  0  0  0  0  0  0
    6.0125    2.7751   -6.5923 C   0  0  0  0  0  0  0  0  0  0  0  0
    6.2766    1.5298   -5.8086 C   0  0  0  0  0  0  0  0  0  0  0  0
    5.5144    1.4272   -4.5625 C   0  0  0  0  0  0  0  0  0  0  0  0
    5.6044    0.3040   -3.6322 C   0  0  0  0  0  0  0  0  0  0  0  0
    4.8238    0.2322   -2.3878 C   0  0  0  0  0  0  0  0  0  0  0  0
    5.0702   -1.0044   -1.7008 O   0  0  0  0  0  0  0  0  0  0  0  0
    6.1003   -1.0009   -0.8196 C   0  0  0  0  0  0  0  0  0  0  0  0
    6.8273   -0.0498   -0.5694 O   0  0  0  0  0  0  0  0  0  0  0  0
    6.2701   -2.3127   -0.1636 C   0  0  0  0  0  0  0  0  0  0  0  0
    5.5008   -3.3856   -0.4051 C   0  0  0  0  0  0  0  0  0  0  0  0
    5.6882   -4.6891    0.2474 C   0  0  0  0  0  0  0  0  0  0  0  0
    6.0801   -4.8222    1.5723 C   0  0  0  0  0  0  0  0  0  0  0  0
    6.2094   -6.0970    2.1436 C   0  0  0  0  0  0  0  0  0  0  0  0
    5.9556   -7.3106    1.4622 C   0  0  0  0  0  0  0  0  0  0  0  0
    6.1082   -8.4148    2.0895 O   0  0  0  0  0  0  0  0  0  0  0  0
    5.5408   -7.1386    0.1121 C   0  0  0  0  0  0  0  0  0  0  0  0
    5.2124   -8.1120   -0.8133 O   0  0  0  0  0  0  0  0  0  0  0  0
    5.3147   -9.4688   -0.4123 C   0  0  0  0  0  0  0  0  0  0  0  0
    5.4086   -5.8543   -0.4654 C   0  0  0  0  0  0  0  0  0  0  0  0
   13.9938   10.8626  -24.4846 H   0  0  0  0  0  0  0  0  0  0  0  0
   12.9069   11.7845  -25.5318 H   0  0  0  0  0  0  0  0  0  0  0  0
   12.6859   10.0390  -25.3525 H   0  0  0  0  0  0  0  0  0  0  0  0
   11.0058   11.3229  -24.0316 H   0  0  0  0  0  0  0  0  0  0  0  0
   12.3084   12.1432  -23.1673 H   0  0  0  0  0  0  0  0  0  0  0  0
   13.1315    9.9324  -22.3108 H   0  0  0  0  0  0  0  0  0  0  0  0
   11.8297    9.1126  -23.1747 H   0  0  0  0  0  0  0  0  0  0  0  0
   10.1406   10.3895  -21.8457 H   0  0  0  0  0  0  0  0  0  0  0  0
   11.4459   11.2115  -20.9796 H   0  0  0  0  0  0  0  0  0  0  0  0
   11.0221    8.1682  -21.0631 H   0  0  0  0  0  0  0  0  0  0  0  0
   12.3251    8.9887  -20.1985 H   0  0  0  0  0  0  0  0  0  0  0  0
   10.6408   10.2213  -18.8318 H   0  0  0  0  0  0  0  0  0  0  0  0
    9.3392    9.4017  -19.6955 H   0  0  0  0  0  0  0  0  0  0  0  0
   10.2132    7.1882  -18.9092 H   0  0  0  0  0  0  0  0  0  0  0  0
   11.5127    8.0065  -18.0469 H   0  0  0  0  0  0  0  0  0  0  0  0
    9.8354    9.2365  -16.6952 H   0  0  0  0  0  0  0  0  0  0  0  0
    8.5422    8.4222  -17.5533 H   0  0  0  0  0  0  0  0  0  0  0  0
   10.6493    7.0592  -15.8526 H   0  0  0  0  0  0  0  0  0  0  0  0
    9.3540    6.2435  -16.7121 H   0  0  0  0  0  0  0  0  0  0  0  0
    8.9705    8.3018  -14.4882 H   0  0  0  0  0  0  0  0  0  0  0  0
    7.6653    7.4799  -15.3543 H   0  0  0  0  0  0  0  0  0  0  0  0
    9.9095    6.0799  -13.8023 H   0  0  0  0  0  0  0  0  0  0  0  0
    8.6098    5.2614  -14.6648 H   0  0  0  0  0  0  0  0  0  0  0  0
    8.2359    7.1934  -12.3413 H   0  0  0  0  0  0  0  0  0  0  0  0
    6.9394    6.3770  -13.2016 H   0  0  0  0  0  0  0  0  0  0  0  0
    7.8737    4.1795  -12.5299 H   0  0  0  0  0  0  0  0  0  0  0  0
    9.1743    4.9985  -11.6669 H   0  0  0  0  0  0  0  0  0  0  0  0
    6.1769    5.2987  -11.0470 H   0  0  0  0  0  0  0  0  0  0  0  0
    7.4862    6.1232  -10.1782 H   0  0  0  0  0  0  0  0  0  0  0  0
    8.5346    3.9060   -9.6699 H   0  0  0  0  0  0  0  0  0  0  0  0
    7.2367    3.0887  -10.5312 H   0  0  0  0  0  0  0  0  0  0  0  0
    5.5917    4.0231   -8.9366 H   0  0  0  0  0  0  0  0  0  0  0  0
    6.8880    4.8394   -8.0764 H   0  0  0  0  0  0  0  0  0  0  0  0
    6.6462    1.8210   -8.4490 H   0  0  0  0  0  0  0  0  0  0  0  0
    7.9519    2.6432   -7.5826 H   0  0  0  0  0  0  0  0  0  0  0  0
    6.2621    3.6662   -6.0044 H   0  0  0  0  0  0  0  0  0  0  0  0
    4.9546    2.8429   -6.8720 H   0  0  0  0  0  0  0  0  0  0  0  0
    7.3474    1.4656   -5.5738 H   0  0  0  0  0  0  0  0  0  0  0  0
    6.0560    0.6523   -6.4307 H   0  0  0  0  0  0  0  0  0  0  0  0
    5.7290    2.3336   -3.9768 H   0  0  0  0  0  0  0  0  0  0  0  0
    4.4508    1.5294   -4.8248 H   0  0  0  0  0  0  0  0  0  0  0  0
    6.6650    0.1860   -3.3672 H   0  0  0  0  0  0  0  0  0  0  0  0
    5.3926   -0.6136   -4.2013 H   0  0  0  0  0  0  0  0  0  0  0  0
    3.7514    0.2538   -2.6112 H   0  0  0  0  0  0  0  0  0  0  0  0
    5.0160    1.0895   -1.7315 H   0  0  0  0  0  0  0  0  0  0  0  0
    7.0955   -2.3508    0.5388 H   0  0  0  0  0  0  0  0  0  0  0  0
    4.6933   -3.3462   -1.1316 H   0  0  0  0  0  0  0  0  0  0  0  0
    6.2817   -3.9590    2.1967 H   0  0  0  0  0  0  0  0  0  0  0  0
    6.5222   -6.1584    3.1872 H   0  0  0  0  0  0  0  0  0  0  0  0
    5.0333  -10.0808   -1.2761 H   0  0  0  0  0  0  0  0  0  0  0  0
    6.3448   -9.7418   -0.1629 H   0  0  0  0  0  0  0  0  0  0  0  0
    4.6025   -9.7107    0.3825 H   0  0  0  0  0  0  0  0  0  0  0  0
    5.0858   -5.7956   -1.5014 H   0  0  0  0  0  0  0  0  0  0  0  0
  1  2  1  0
  2  3  1  0
  3  4  1  0
  4  5  1  0
  5  6  1  0
  6  7  1  0
  7  8  1  0
  8  9  1  0
  9 10  1  0
 10 11  1  0
 11 12  1  0
 12 13  1  0
 13 14  1  0
 14 15  1  0
 15 16  1  0
 16 17  1  0
 17 18  1  0
 18 19  1  0
 19 20  1  0
 20 21  1  0
 21 22  1  0
 22 23  1  0
 23 24  1  0
 24 25  2  0
 24 26  1  0
 26 27  2  0
 27 28  1  0
 28 29  2  0
 29 30  1  0
 30 31  2  0
 31 32  1  0
 31 33  1  0
 33 34  1  0
 34 35  1  0
 33 36  2  0
 36 28  1  0
  1 37  1  0
  1 38  1  0
  1 39  1  0
  2 40  1  0
  2 41  1  0
  3 42  1  0
  3 43  1  0
  4 44  1  0
  4 45  1  0
  5 46  1  0
  5 47  1  0
  6 48  1  0
  6 49  1  0
  7 50  1  0
  7 51  1  0
  8 52  1  0
  8 53  1  0
  9 54  1  0
  9 55  1  0
 10 56  1  0
 10 57  1  0
 11 58  1  0
 11 59  1  0
 12 60  1  0
 12 61  1  0
 13 62  1  0
 13 63  1  0
 14 64  1  0
 14 65  1  0
 15 66  1  0
 15 67  1  0
 16 68  1  0
 16 69  1  0
 17 70  1  0
 17 71  1  0
 18 72  1  0
 18 73  1  0
 19 74  1  0
 19 75  1  0
 20 76  1  0
 20 77  1  0
 21 78  1  0
 21 79  1  0
 22 80  1  0
 22 81  1  0
 26 82  1  0
 27 83  1  0
 29 84  1  0
 30 85  1  0
 35 86  1  0
 35 87  1  0
 35 88  1  0
 36 89  1  0
M  CHG  1  32  -1
M  END
$$$$
