
     RDKit          3D

 89 89  0  0  0  0  0  0  0  0999 V2000
  -13.2168  -16.6638    6.1611 C   0  0  0  0  0  0  0  0  0  0  0  0
  -12.5021  -15.4080    6.5594 C   0  0  0  0  0  0  0  0  0  0  0  0
  -11.5171  -14.9847    5.4656 C   0  0  0  0  0  0  0  0  0  0  0  0
  -10.7903  -13.7219    5.8527 C   0  0  0  0  0  0  0  0  0  0  0  0
   -9.8234  -13.3512    4.7228 C   0  0  0  0  0  0  0  0  0  0  0  0
   -9.0756  -12.0910    5.0720 C   0  0  0  0  0  0  0  0  0  0  0  0
   -8.1035  -11.7033    3.9547 C   0  0  0  0  0  0  0  0  0  0  0  0
   -7.3527  -10.4531    4.2863 C   0  0  0  0  0  0  0  0  0  0  0  0
   -6.3780  -10.0084    3.2364 C   0  0  0  0  0  0  0  0  0  0  0  0
   -5.6343   -8.7516    3.5881 C   0  0  0  0  0  0  0  0  0  0  0  0
   -4.6955   -8.4365    2.4348 C   0  0  0  0  0  0  0  0  0  0  0  0
   -3.8944   -7.1856    2.6843 C   0  0  0  0  0  0  0  0  0  0  0  0
   -2.9637   -6.8596    1.5578 C   0  0  0  0  0  0  0  0  0  0  0  0
   -2.1644   -5.5864    1.8383 C   0  0  0  0  0  0  0  0  0  0  0  0
   -1.2772   -5.3812    0.6321 C   0  0  0  0  0  0  0  0  0  0  0  0
   -0.4240   -4.1633    0.7539 C   0  0  0  0  0  0  0  0  0  0  0  0
    0.4576   -3.9575   -0.4422 C   0  0  0  0  0  0  0  0  0  0  0  0
    1.3031   -2.6769   -0.2287 C   0  0  0  0  0  0  0  0  0  0  0  0
    2.1656   -2.5062   -1.4377 C   0  0  0  0  0  0  0  0  0  0  0  0
    3.0365   -1.3300   -1.3970 C   0  0  0  0  0  0  0  0  0  0  0  0
    3.9660   -0.9557   -2.4607 C   0  0  0  0  0  0  0  0  0  0  0  0
    4.8276    0.2338   -2.3886 C   0  0  0  0  0  0  0  0  0  0  0  0
    5.7356    0.1336   -1.2812 O   0  0  0  0  0  0  0  0  0  0  0  0
    5.4154    0.8371   -0.1681 C   0  0  0  0  0  0  0  0  0  0  0  0
    4.4267    1.5415   -0.0210 O   0  0  0  0  0  0  0  0  0  0  0  0
    6.4167    0.6589    0.9024 C   0  0  0  0  0  0  0  0  0  0  0  0
    7.5102   -0.1120    0.7961 C   0  0  0  0  0  0  0  0  0  0  0  0
    8.4921   -0.2906    1.8749 C   0  0  0  0  0  0  0  0  0  0  0  0
    8.8592    0.7309    2.7400 C   0  0  0  0  0  0  0  0  0  0  0  0
    9.8274    0.5020    3.7291 C   0  0  0  0  0  0  0  0  0  0  0  0
   10.4983   -0.7281    3.9250 C   0  0  0  0  0  0  0  0  0  0  0  0
   11.3644   -0.8169    4.8622 O   0  0  0  0  0  0  0  0  0  0  0  0
   10.1107   -1.7485    3.0126 C   0  0  0  0  0  0  0  0  0  0  0  0
   10.5765   -3.0480    2.9329 O   0  0  0  0  0  0  0  0  0  0  0  0
   11.5450   -3.4639    3.8823 C   0  0  0  0  0  0  0  0  0  0  0  0
    9.1358   -1.5195    2.0138 C   0  0  0  0  0  0  0  0  0  0  0  0
  -13.7856  -16.5229    5.2361 H   0  0  0  0  0  0  0  0  0  0  0  0
  -13.9210  -16.9668    6.9426 H   0  0  0  0  0  0  0  0  0  0  0  0
  -12.5151  -17.4901    6.0059 H   0  0  0  0  0  0  0  0  0  0  0  0
  -11.9665  -15.5722    7.5016 H   0  0  0  0  0  0  0  0  0  0  0  0
  -13.2318  -14.6090    6.7349 H   0  0  0  0  0  0  0  0  0  0  0  0
  -12.0621  -14.8320    4.5256 H   0  0  0  0  0  0  0  0  0  0  0  0
  -10.7975  -15.7947    5.2919 H   0  0  0  0  0  0  0  0  0  0  0  0
  -10.2361  -13.8714    6.7869 H   0  0  0  0  0  0  0  0  0  0  0  0
  -11.5040  -12.9061    6.0186 H   0  0  0  0  0  0  0  0  0  0  0  0
   -9.1154  -14.1724    4.5559 H   0  0  0  0  0  0  0  0  0  0  0  0
  -10.3812  -13.2089    3.7889 H   0  0  0  0  0  0  0  0  0  0  0  0
   -9.7836  -11.2700    5.2408 H   0  0  0  0  0  0  0  0  0  0  0  0
   -8.5193  -12.2325    6.0069 H   0  0  0  0  0  0  0  0  0  0  0  0
   -7.3981  -12.5262    3.7846 H   0  0  0  0  0  0  0  0  0  0  0  0
   -8.6605  -11.5652    3.0197 H   0  0  0  0  0  0  0  0  0  0  0  0
   -8.0693   -9.6418    4.4703 H   0  0  0  0  0  0  0  0  0  0  0  0
   -6.8131  -10.5981    5.2315 H   0  0  0  0  0  0  0  0  0  0  0  0
   -6.9197   -9.8626    2.2925 H   0  0  0  0  0  0  0  0  0  0  0  0
   -5.6614  -10.8205    3.0550 H   0  0  0  0  0  0  0  0  0  0  0  0
   -6.3334   -7.9224    3.7471 H   0  0  0  0  0  0  0  0  0  0  0  0
   -5.0656   -8.8875    4.5154 H   0  0  0  0  0  0  0  0  0  0  0  0
   -5.2734   -8.3181    1.5091 H   0  0  0  0  0  0  0  0  0  0  0  0
   -4.0108   -9.2792    2.2742 H   0  0  0  0  0  0  0  0  0  0  0  0
   -4.5790   -6.3436    2.8488 H   0  0  0  0  0  0  0  0  0  0  0  0
   -3.3196   -7.3023    3.6120 H   0  0  0  0  0  0  0  0  0  0  0  0
   -2.2766   -7.7004    1.3969 H   0  0  0  0  0  0  0  0  0  0  0  0
   -3.5399   -6.7387    0.6314 H   0  0  0  0  0  0  0  0  0  0  0  0
   -1.5655   -5.7010    2.7488 H   0  0  0  0  0  0  0  0  0  0  0  0
   -2.8373   -4.7329    1.9782 H   0  0  0  0  0  0  0  0  0  0  0  0
   -1.8949   -5.3003   -0.2720 H   0  0  0  0  0  0  0  0  0  0  0  0
   -0.6342   -6.2601    0.4919 H   0  0  0  0  0  0  0  0  0  0  0  0
    0.1952   -4.2411    1.6571 H   0  0  0  0  0  0  0  0  0  0  0  0
   -1.0639   -3.2825    0.8940 H   0  0  0  0  0  0  0  0  0  0  0  0
    1.1183   -4.8219   -0.5811 H   0  0  0  0  0  0  0  0  0  0  0  0
   -0.1501   -3.8563   -1.3497 H   0  0  0  0  0  0  0  0  0  0  0  0
    0.6446   -1.8107   -0.0939 H   0  0  0  0  0  0  0  0  0  0  0  0
    1.9146   -2.7777    0.6757 H   0  0  0  0  0  0  0  0  0  0  0  0
    1.5326   -2.4458   -2.3329 H   0  0  0  0  0  0  0  0  0  0  0  0
    2.7869   -3.4014   -1.5733 H   0  0  0  0  0  0  0  0  0  0  0  0
    2.3921   -0.4551   -1.2242 H   0  0  0  0  0  0  0  0  0  0  0  0
    3.6264   -1.4105   -0.4725 H   0  0  0  0  0  0  0  0  0  0  0  0
    3.3875   -0.8785   -3.3918 H   0  0  0  0  0  0  0  0  0  0  0  0
    4.6270   -1.8209   -2.6159 H   0  0  0  0  0  0  0  0  0  0  0  0
    4.2381    1.1572   -2.3484 H   0  0  0  0  0  0  0  0  0  0  0  0
    5.4466    0.3071   -3.2900 H   0  0  0  0  0  0  0  0  0  0  0  0
    6.1888    1.2004    1.8138 H   0  0  0  0  0  0  0  0  0  0  0  0
    7.7156   -0.6745   -0.1110 H   0  0  0  0  0  0  0  0  0  0  0  0
    8.4247    1.7219    2.6690 H   0  0  0  0  0  0  0  0  0  0  0  0
   10.0860    1.3305    4.3905 H   0  0  0  0  0  0  0  0  0  0  0  0
   12.4852   -2.9158    3.7678 H   0  0  0  0  0  0  0  0  0  0  0  0
   11.1520   -3.4331    4.9032 H   0  0  0  0  0  0  0  0  0  0  0  0
   11.7719   -4.5143    3.6700 H   0  0  0  0  0  0  0  0  0  0  0  0
    8.8884   -2.3429    1.3491 H   0  0  0  0  0  0  0  0  0  0  0  0
  1  2  1  0
  2  3  1  0
  3  4  1  0
  4  5  1  0
  5  6  1  0
  6  7  1  0
  7  8  1  0
  8  9  1  0
  9 10  1  0
 10 11  1  0
 11 12  1  0
 12 13  1  0
 13 14  1  0
 14 15  1  0
 15 16  1  0
 16 17  1  0
 17 18  1  0
 18 19  1  0
 19 20  1  0
 20 21  1  0
 21 22  1  0
 22 23  1  0
 23 24  1  0
 24 25  2  0
 24 26  1  0
 26 27  2  0
 27 28  1  0
 28 29  2  0
 29 30  1  0
 30 31  2  0
 31 32  1  0
 31 33  1  0
 33 34  1  0
 34 35  1  0
 33 36  2  0
 36 28  1  0
  1 37  1  0
  1 38  1  0
  1 39  1  0
  2 40  1  0
  2 41  1  0
  3 42  1  0
  3 43  1  0
  4 44  1  0
  4 45  1  0
  5 46  1  0
  5 47  1  0
  6 48  1  0
  6 49  1  0
  7 50  1  0
  7 51  1  0
  8 52  1  0
  8 53  1  0
  9 54  1  0
  9 55  1  0
 10 56  1  0
 10 57  1  0
 11 58  1  0
 11 59  1  0
 12 60  1  0
 12 61  1  0
 13 62  1  0
 13 63  1  0
 14 64  1  0
 14 65  1  0
 15 66  1  0
 15 67  1  0
 16 68  1  0
 16 69  1  0
 17 70  1  0
 17 71  1  0
 18 72  1  0
 18 73  1  0
 19 74  1  0
 19 75  1  0
 20 76  1  0
 20 77  1  0
 21 78  1  0
 21 79  1  0
 22 80  1  0
 22 81  1  0
 26 82  1  0
 27 83  1  0
 29 84  1  0
 30 85  1  0
 35 86  1  0
 35 87  1  0
 35 88  1  0
 36 89  1  0
M  CHG  1  32  -1
M  END
$$$$
