
     RDKit          3D

 89 89  0  0  0  0  0  0  0  0999 V2000
  -14.1912   10.9111   15.7497 C   0  0  0  0  0  0  0  0  0  0  0  0
  -12.7571   11.1207   15.3677 C   0  0  0  0  0  0  0  0  0  0  0  0
  -12.3753   10.2021   14.2033 C   0  0  0  0  0  0  0  0  0  0  0  0
  -10.9342   10.4020   13.8078 C   0  0  0  0  0  0  0  0  0  0  0  0
  -10.6140    9.4589   12.6428 C   0  0  0  0  0  0  0  0  0  0  0  0
   -9.1791    9.6285   12.2170 C   0  0  0  0  0  0  0  0  0  0  0  0
   -8.8389    8.6941   11.0531 C   0  0  0  0  0  0  0  0  0  0  0  0
   -7.4166    8.8505   10.6180 C   0  0  0  0  0  0  0  0  0  0  0  0
   -7.0072    7.9653    9.4784 C   0  0  0  0  0  0  0  0  0  0  0  0
   -5.5758    8.1372    9.0564 C   0  0  0  0  0  0  0  0  0  0  0  0
   -5.3196    7.1802    7.9036 C   0  0  0  0  0  0  0  0  0  0  0  0
   -3.9033    7.2703    7.3989 C   0  0  0  0  0  0  0  0  0  0  0  0
   -3.6327    6.3340    6.2625 C   0  0  0  0  0  0  0  0  0  0  0  0
   -2.1890    6.4471    5.7712 C   0  0  0  0  0  0  0  0  0  0  0  0
   -2.0596    5.4572    4.6366 C   0  0  0  0  0  0  0  0  0  0  0  0
   -0.6908    5.4475    4.0431 C   0  0  0  0  0  0  0  0  0  0  0  0
   -0.5600    4.4656    2.9165 C   0  0  0  0  0  0  0  0  0  0  0  0
    0.8865    4.5241    2.3646 C   0  0  0  0  0  0  0  0  0  0  0  0
    0.9770    3.5351    1.2473 C   0  0  0  0  0  0  0  0  0  0  0  0
    2.2929    3.4636    0.6092 C   0  0  0  0  0  0  0  0  0  0  0  0
    2.6223    2.5734   -0.5019 C   0  0  0  0  0  0  0  0  0  0  0  0
    3.9555    2.5264   -1.1209 C   0  0  0  0  0  0  0  0  0  0  0  0
    4.9744    2.2848   -0.1388 O   0  0  0  0  0  0  0  0  0  0  0  0
    5.2270    0.9796    0.1383 C   0  0  0  0  0  0  0  0  0  0  0  0
    4.6757    0.0131   -0.3617 O   0  0  0  0  0  0  0  0  0  0  0  0
    6.2862    0.9343    1.1638 C   0  0  0  0  0  0  0  0  0  0  0  0
    6.7274   -0.2429    1.6310 C   0  0  0  0  0  0  0  0  0  0  0  0
    7.7872   -0.3666    2.6406 C   0  0  0  0  0  0  0  0  0  0  0  0
    7.9144    0.5097    3.7099 C   0  0  0  0  0  0  0  0  0  0  0  0
    8.9372    0.3275    4.6523 C   0  0  0  0  0  0  0  0  0  0  0  0
    9.8851   -0.7217    4.6131 C   0  0  0  0  0  0  0  0  0  0  0  0
   10.7801   -0.7795    5.5252 O   0  0  0  0  0  0  0  0  0  0  0  0
    9.7122   -1.6151    3.5188 C   0  0  0  0  0  0  0  0  0  0  0  0
   10.4583   -2.7357    3.2032 O   0  0  0  0  0  0  0  0  0  0  0  0
   11.5047   -3.1052    4.0867 C   0  0  0  0  0  0  0  0  0  0  0  0
    8.6825   -1.4322    2.5663 C   0  0  0  0  0  0  0  0  0  0  0  0
  -14.8632   11.1342   14.9144 H   0  0  0  0  0  0  0  0  0  0  0  0
  -14.4647   11.5675   16.5821 H   0  0  0  0  0  0  0  0  0  0  0  0
  -14.3731    9.8786   16.0656 H   0  0  0  0  0  0  0  0  0  0  0  0
  -12.1127   10.9175   16.2309 H   0  0  0  0  0  0  0  0  0  0  0  0
  -12.6008   12.1680   15.0843 H   0  0  0  0  0  0  0  0  0  0  0  0
  -13.0318   10.4074   13.3484 H   0  0  0  0  0  0  0  0  0  0  0  0
  -12.5440    9.1576   14.4943 H   0  0  0  0  0  0  0  0  0  0  0  0
  -10.2725   10.1890   14.6558 H   0  0  0  0  0  0  0  0  0  0  0  0
  -10.7617   11.4422   13.5068 H   0  0  0  0  0  0  0  0  0  0  0  0
  -10.7941    8.4201   12.9462 H   0  0  0  0  0  0  0  0  0  0  0  0
  -11.2824    9.6710   11.7992 H   0  0  0  0  0  0  0  0  0  0  0  0
   -8.9983   10.6677   11.9154 H   0  0  0  0  0  0  0  0  0  0  0  0
   -8.5106    9.4182   13.0611 H   0  0  0  0  0  0  0  0  0  0  0  0
   -9.0231    7.6555   11.3547 H   0  0  0  0  0  0  0  0  0  0  0  0
   -9.5101    8.9031   10.2108 H   0  0  0  0  0  0  0  0  0  0  0  0
   -7.2405    9.8966   10.3347 H   0  0  0  0  0  0  0  0  0  0  0  0
   -6.7559    8.6551   11.4730 H   0  0  0  0  0  0  0  0  0  0  0  0
   -7.6681    8.1633    8.6240 H   0  0  0  0  0  0  0  0  0  0  0  0
   -7.1827    6.9197    9.7643 H   0  0  0  0  0  0  0  0  0  0  0  0
   -5.3887    9.1706    8.7420 H   0  0  0  0  0  0  0  0  0  0  0  0
   -4.8996    7.9175    9.8909 H   0  0  0  0  0  0  0  0  0  0  0  0
   -6.0121    7.3986    7.0805 H   0  0  0  0  0  0  0  0  0  0  0  0
   -5.5251    6.1508    8.2245 H   0  0  0  0  0  0  0  0  0  0  0  0
   -3.6965    8.3005    7.0817 H   0  0  0  0  0  0  0  0  0  0  0  0
   -3.2106    7.0558    8.2229 H   0  0  0  0  0  0  0  0  0  0  0  0
   -3.8355    5.3036    6.5821 H   0  0  0  0  0  0  0  0  0  0  0  0
   -4.3229    6.5522    5.4373 H   0  0  0  0  0  0  0  0  0  0  0  0
   -1.4880    6.2090    6.5792 H   0  0  0  0  0  0  0  0  0  0  0  0
   -1.9786    7.4660    5.4268 H   0  0  0  0  0  0  0  0  0  0  0  0
   -2.7912    5.6949    3.8530 H   0  0  0  0  0  0  0  0  0  0  0  0
   -2.3048    4.4489    4.9955 H   0  0  0  0  0  0  0  0  0  0  0  0
    0.0432    5.2099    4.8241 H   0  0  0  0  0  0  0  0  0  0  0  0
   -0.4425    6.4543    3.6831 H   0  0  0  0  0  0  0  0  0  0  0  0
   -0.7844    3.4511    3.2681 H   0  0  0  0  0  0  0  0  0  0  0  0
   -1.2737    4.7047    2.1188 H   0  0  0  0  0  0  0  0  0  0  0  0
    1.1115    5.5364    2.0087 H   0  0  0  0  0  0  0  0  0  0  0  0
    1.6013    4.2812    3.1596 H   0  0  0  0  0  0  0  0  0  0  0  0
    0.2266    3.7769    0.4830 H   0  0  0  0  0  0  0  0  0  0  0  0
    0.7105    2.5371    1.6198 H   0  0  0  0  0  0  0  0  0  0  0  0
    2.5474    4.4814    0.2776 H   0  0  0  0  0  0  0  0  0  0  0  0
    3.0217    3.2579    1.4072 H   0  0  0  0  0  0  0  0  0  0  0  0
    1.9013    2.7690   -1.3080 H   0  0  0  0  0  0  0  0  0  0  0  0
    2.3823    1.5548   -0.1654 H   0  0  0  0  0  0  0  0  0  0  0  0
    4.1931    3.4931   -1.5787 H   0  0  0  0  0  0  0  0  0  0  0  0
    4.0095    1.7857   -1.9282 H   0  0  0  0  0  0  0  0  0  0  0  0
    6.6901    1.8805    1.5018 H   0  0  0  0  0  0  0  0  0  0  0  0
    6.3236   -1.1790    1.2511 H   0  0  0  0  0  0  0  0  0  0  0  0
    7.2316    1.3403    3.8497 H   0  0  0  0  0  0  0  0  0  0  0  0
    9.0063    1.0417    5.4744 H   0  0  0  0  0  0  0  0  0  0  0  0
   11.9485   -4.0254    3.6915 H   0  0  0  0  0  0  0  0  0  0  0  0
   12.3043   -2.3582    4.1006 H   0  0  0  0  0  0  0  0  0  0  0  0
   11.1274   -3.3482    5.0849 H   0  0  0  0  0  0  0  0  0  0  0  0
    8.6089   -2.1501    1.7537 H   0  0  0  0  0  0  0  0  0  0  0  0
  1  2  1  0
  2  3  1  0
  3  4  1  0
  4  5  1  0
  5  6  1  0
  6  7  1  0
  7  8  1  0
  8  9  1  0
  9 10  1  0
 10 11  1  0
 11 12  1  0
 12 13  1  0
 13 14  1  0
 14 15  1  0
 15 16  1  0
 16 17  1  0
 17 18  1  0
 18 19  1  0
 19 20  1  0
 20 21  1  0
 21 22  1  0
 22 23  1  0
 23 24  1  0
 24 25  2  0
 24 26  1  0
 26 27  2  0
 27 28  1  0
 28 29  2  0
 29 30  1  0
 30 31  2  0
 31 32  1  0
 31 33  1  0
 33 34  1  0
 34 35  1  0
 33 36  2  0
 36 28  1  0
  1 37  1  0
  1 38  1  0
  1 39  1  0
  2 40  1  0
  2 41  1  0
  3 42  1  0
  3 43  1  0
  4 44  1  0
  4 45  1  0
  5 46  1  0
  5 47  1  0
  6 48  1  0
  6 49  1  0
  7 50  1  0
  7 51  1  0
  8 52  1  0
  8 53  1  0
  9 54  1  0
  9 55  1  0
 10 56  1  0
 10 57  1  0
 11 58  1  0
 11 59  1  0
 12 60  1  0
 12 61  1  0
 13 62  1  0
 13 63  1  0
 14 64  1  0
 14 65  1  0
 15 66  1  0
 15 67  1  0
 16 68  1  0
 16 69  1  0
 17 70  1  0
 17 71  1  0
 18 72  1  0
 18 73  1  0
 19 74  1  0
 19 75  1  0
 20 76  1  0
 20 77  1  0
 21 78  1  0
 21 79  1  0
 22 80  1  0
 22 81  1  0
 26 82  1  0
 27 83  1  0
 29 84  1  0
 30 85  1  0
 35 86  1  0
 35 87  1  0
 35 88  1  0
 36 89  1  0
M  CHG  1  32  -1
M  END
$$$$
