
     RDKit          3D

 89 89  0  0  0  0  0  0  0  0999 V2000
    5.9193  -24.9850   -9.2514 C   0  0  0  0  0  0  0  0  0  0  0  0
    5.6070  -24.0985   -8.0838 C   0  0  0  0  0  0  0  0  0  0  0  0
    5.7762  -22.6265   -8.4713 C   0  0  0  0  0  0  0  0  0  0  0  0
    5.4652  -21.7221   -7.3058 C   0  0  0  0  0  0  0  0  0  0  0  0
    5.6517  -20.2685   -7.7544 C   0  0  0  0  0  0  0  0  0  0  0  0
    5.3497  -19.3307   -6.6149 C   0  0  0  0  0  0  0  0  0  0  0  0
    5.5304  -17.8721   -7.0432 C   0  0  0  0  0  0  0  0  0  0  0  0
    5.2340  -16.9275   -5.9222 C   0  0  0  0  0  0  0  0  0  0  0  0
    5.3895  -15.4758   -6.2661 C   0  0  0  0  0  0  0  0  0  0  0  0
    5.0875  -14.5437   -5.1275 C   0  0  0  0  0  0  0  0  0  0  0  0
    5.2892  -13.1239   -5.6315 C   0  0  0  0  0  0  0  0  0  0  0  0
    5.0110  -12.1002   -4.5622 C   0  0  0  0  0  0  0  0  0  0  0  0
    5.2048  -10.6950   -5.0413 C   0  0  0  0  0  0  0  0  0  0  0  0
    4.9158   -9.6784   -3.9360 C   0  0  0  0  0  0  0  0  0  0  0  0
    5.1488   -8.3189   -4.5536 C   0  0  0  0  0  0  0  0  0  0  0  0
    4.9050   -7.2066   -3.5896 C   0  0  0  0  0  0  0  0  0  0  0  0
    5.1357   -5.8560   -4.2004 C   0  0  0  0  0  0  0  0  0  0  0  0
    4.8603   -4.7680   -3.1324 C   0  0  0  0  0  0  0  0  0  0  0  0
    5.1001   -3.4406   -3.7769 C   0  0  0  0  0  0  0  0  0  0  0  0
    4.8819   -2.2927   -2.8946 C   0  0  0  0  0  0  0  0  0  0  0  0
    5.0531   -0.8988   -3.2989 C   0  0  0  0  0  0  0  0  0  0  0  0
    4.8254    0.2321   -2.3869 C   0  0  0  0  0  0  0  0  0  0  0  0
    5.6965    0.1017   -1.2569 O   0  0  0  0  0  0  0  0  0  0  0  0
    5.5688    1.0834   -0.3315 C   0  0  0  0  0  0  0  0  0  0  0  0
    4.8015    2.0333   -0.3993 O   0  0  0  0  0  0  0  0  0  0  0  0
    6.4827    0.8874    0.8112 C   0  0  0  0  0  0  0  0  0  0  0  0
    7.3368   -0.1414    0.9278 C   0  0  0  0  0  0  0  0  0  0  0  0
    8.2336   -0.3338    2.0760 C   0  0  0  0  0  0  0  0  0  0  0  0
    8.8486    0.7184    2.7402 C   0  0  0  0  0  0  0  0  0  0  0  0
    9.7194    0.4629    3.8100 C   0  0  0  0  0  0  0  0  0  0  0  0
   10.0477   -0.8284    4.2860 C   0  0  0  0  0  0  0  0  0  0  0  0
   10.8560   -0.9364    5.2715 O   0  0  0  0  0  0  0  0  0  0  0  0
    9.4137   -1.8843    3.5739 C   0  0  0  0  0  0  0  0  0  0  0  0
    9.5273   -3.2466    3.7819 O   0  0  0  0  0  0  0  0  0  0  0  0
   10.3540   -3.6873    4.8471 C   0  0  0  0  0  0  0  0  0  0  0  0
    8.5363   -1.6290    2.4943 C   0  0  0  0  0  0  0  0  0  0  0  0
    5.2515  -24.7832  -10.0954 H   0  0  0  0  0  0  0  0  0  0  0  0
    5.7986  -26.0374   -8.9750 H   0  0  0  0  0  0  0  0  0  0  0  0
    6.9503  -24.8462   -9.5932 H   0  0  0  0  0  0  0  0  0  0  0  0
    6.2717  -24.3436   -7.2473 H   0  0  0  0  0  0  0  0  0  0  0  0
    4.5798  -24.2808   -7.7475 H   0  0  0  0  0  0  0  0  0  0  0  0
    5.1136  -22.3945   -9.3146 H   0  0  0  0  0  0  0  0  0  0  0  0
    6.8045  -22.4572   -8.8147 H   0  0  0  0  0  0  0  0  0  0  0  0
    6.1308  -21.9430   -6.4628 H   0  0  0  0  0  0  0  0  0  0  0  0
    4.4353  -21.8801   -6.9640 H   0  0  0  0  0  0  0  0  0  0  0  0
    6.6813  -20.1166   -8.1014 H   0  0  0  0  0  0  0  0  0  0  0  0
    4.9888  -20.0538   -8.6017 H   0  0  0  0  0  0  0  0  0  0  0  0
    4.3207  -19.4839   -6.2666 H   0  0  0  0  0  0  0  0  0  0  0  0
    6.0112  -19.5466   -5.7668 H   0  0  0  0  0  0  0  0  0  0  0  0
    6.5587  -17.7209   -7.3944 H   0  0  0  0  0  0  0  0  0  0  0  0
    4.8707  -17.6583   -7.8934 H   0  0  0  0  0  0  0  0  0  0  0  0
    4.2088  -17.0998   -5.5689 H   0  0  0  0  0  0  0  0  0  0  0  0
    5.8885  -17.1621   -5.0723 H   0  0  0  0  0  0  0  0  0  0  0  0
    4.7332  -15.2430   -7.1152 H   0  0  0  0  0  0  0  0  0  0  0  0
    6.4158  -15.3055   -6.6178 H   0  0  0  0  0  0  0  0  0  0  0  0
    4.0569  -14.6815   -4.7804 H   0  0  0  0  0  0  0  0  0  0  0  0
    5.7522  -14.7444   -4.2792 H   0  0  0  0  0  0  0  0  0  0  0  0
    4.6308  -12.9390   -6.4901 H   0  0  0  0  0  0  0  0  0  0  0  0
    6.3191  -13.0016   -5.9911 H   0  0  0  0  0  0  0  0  0  0  0  0
    3.9826  -12.2249   -4.1999 H   0  0  0  0  0  0  0  0  0  0  0  0
    5.6665  -12.2873   -3.7020 H   0  0  0  0  0  0  0  0  0  0  0  0
    6.2349  -10.5701   -5.3993 H   0  0  0  0  0  0  0  0  0  0  0  0
    4.5456  -10.5074   -5.8987 H   0  0  0  0  0  0  0  0  0  0  0  0
    5.5830   -9.8390   -3.0817 H   0  0  0  0  0  0  0  0  0  0  0  0
    3.8824   -9.7759   -3.5844 H   0  0  0  0  0  0  0  0  0  0  0  0
    4.4935   -8.1913   -5.4254 H   0  0  0  0  0  0  0  0  0  0  0  0
    6.1793   -8.2539   -4.9270 H   0  0  0  0  0  0  0  0  0  0  0  0
    5.5590   -7.3311   -2.7167 H   0  0  0  0  0  0  0  0  0  0  0  0
    3.8753   -7.2686   -3.2144 H   0  0  0  0  0  0  0  0  0  0  0  0
    6.1685   -5.7726   -4.5602 H   0  0  0  0  0  0  0  0  0  0  0  0
    4.4724   -5.7097   -5.0616 H   0  0  0  0  0  0  0  0  0  0  0  0
    3.8271   -4.8468   -2.7743 H   0  0  0  0  0  0  0  0  0  0  0  0
    5.5253   -4.9099   -2.2724 H   0  0  0  0  0  0  0  0  0  0  0  0
    4.4508   -3.3385   -4.6565 H   0  0  0  0  0  0  0  0  0  0  0  0
    6.1282   -3.4008   -4.1605 H   0  0  0  0  0  0  0  0  0  0  0  0
    3.8581   -2.3779   -2.5005 H   0  0  0  0  0  0  0  0  0  0  0  0
    5.5166   -2.4470   -2.0094 H   0  0  0  0  0  0  0  0  0  0  0  0
    4.4237   -0.7313   -4.1839 H   0  0  0  0  0  0  0  0  0  0  0  0
    6.0841   -0.8069   -3.6708 H   0  0  0  0  0  0  0  0  0  0  0  0
    3.7848    0.2381   -2.0410 H   0  0  0  0  0  0  0  0  0  0  0  0
    5.0341    1.1811   -2.8953 H   0  0  0  0  0  0  0  0  0  0  0  0
    6.4005    1.6493    1.5783 H   0  0  0  0  0  0  0  0  0  0  0  0
    7.3914   -0.9155    0.1666 H   0  0  0  0  0  0  0  0  0  0  0  0
    8.6863    1.7499    2.4480 H   0  0  0  0  0  0  0  0  0  0  0  0
   10.1805    1.3179    4.3072 H   0  0  0  0  0  0  0  0  0  0  0  0
   11.4038   -3.4285    4.6785 H   0  0  0  0  0  0  0  0  0  0  0  0
    9.9793   -3.3492    5.8182 H   0  0  0  0  0  0  0  0  0  0  0  0
   10.3038   -4.7815    4.8605 H   0  0  0  0  0  0  0  0  0  0  0  0
    8.0874   -2.4827    1.9936 H   0  0  0  0  0  0  0  0  0  0  0  0
  1  2  1  0
  2  3  1  0
  3  4  1  0
  4  5  1  0
  5  6  1  0
  6  7  1  0
  7  8  1  0
  8  9  1  0
  9 10  1  0
 10 11  1  0
 11 12  1  0
 12 13  1  0
 13 14  1  0
 14 15  1  0
 15 16  1  0
 16 17  1  0
 17 18  1  0
 18 19  1  0
 19 20  1  0
 20 21  1  0
 21 22  1  0
 22 23  1  0
 23 24  1  0
 24 25  2  0
 24 26  1  0
 26 27  2  0
 27 28  1  0
 28 29  2  0
 29 30  1  0
 30 31  2  0
 31 32  1  0
 31 33  1  0
 33 34  1  0
 34 35  1  0
 33 36  2  0
 36 28  1  0
  1 37  1  0
  1 38  1  0
  1 39  1  0
  2 40  1  0
  2 41  1  0
  3 42  1  0
  3 43  1  0
  4 44  1  0
  4 45  1  0
  5 46  1  0
  5 47  1  0
  6 48  1  0
  6 49  1  0
  7 50  1  0
  7 51  1  0
  8 52  1  0
  8 53  1  0
  9 54  1  0
  9 55  1  0
 10 56  1  0
 10 57  1  0
 11 58  1  0
 11 59  1  0
 12 60  1  0
 12 61  1  0
 13 62  1  0
 13 63  1  0
 14 64  1  0
 14 65  1  0
 15 66  1  0
 15 67  1  0
 16 68  1  0
 16 69  1  0
 17 70  1  0
 17 71  1  0
 18 72  1  0
 18 73  1  0
 19 74  1  0
 19 75  1  0
 20 76  1  0
 20 77  1  0
 21 78  1  0
 21 79  1  0
 22 80  1  0
 22 81  1  0
 26 82  1  0
 27 83  1  0
 29 84  1  0
 30 85  1  0
 35 86  1  0
 35 87  1  0
 35 88  1  0
 36 89  1  0
M  CHG  1  32  -1
M  END
$$$$
