
     RDKit          3D

 89 89  0  0  0  0  0  0  0  0999 V2000
    0.9188  -14.5166  -23.6352 C   0  0  0  0  0  0  0  0  0  0  0  0
    0.4321  -13.2652  -22.9690 C   0  0  0  0  0  0  0  0  0  0  0  0
    1.1910  -13.0277  -21.6601 C   0  0  0  0  0  0  0  0  0  0  0  0
    0.7119  -11.7713  -20.9783 C   0  0  0  0  0  0  0  0  0  0  0  0
    1.5058  -11.5892  -19.6800 C   0  0  0  0  0  0  0  0  0  0  0  0
    1.0554  -10.3410  -18.9670 C   0  0  0  0  0  0  0  0  0  0  0  0
    1.8373  -10.1408  -17.6661 C   0  0  0  0  0  0  0  0  0  0  0  0
    1.4017   -8.9048  -16.9456 C   0  0  0  0  0  0  0  0  0  0  0  0
    2.1244   -8.6404  -15.6581 C   0  0  0  0  0  0  0  0  0  0  0  0
    1.6727   -7.3950  -14.9499 C   0  0  0  0  0  0  0  0  0  0  0  0
    2.4925   -7.2692  -13.6760 C   0  0  0  0  0  0  0  0  0  0  0  0
    2.1185   -6.0448  -12.8824 C   0  0  0  0  0  0  0  0  0  0  0  0
    2.9165   -5.9046  -11.6235 C   0  0  0  0  0  0  0  0  0  0  0  0
    2.5159   -4.6544  -10.8392 C   0  0  0  0  0  0  0  0  0  0  0  0
    3.3917   -4.6406   -9.6077 C   0  0  0  0  0  0  0  0  0  0  0  0
    3.1186   -3.4668   -8.7282 C   0  0  0  0  0  0  0  0  0  0  0  0
    3.9869   -3.4510   -7.5049 C   0  0  0  0  0  0  0  0  0  0  0  0
    3.6355   -2.2038   -6.6556 C   0  0  0  0  0  0  0  0  0  0  0  0
    4.5186   -2.2233   -5.4495 C   0  0  0  0  0  0  0  0  0  0  0  0
    4.3127   -1.1009   -4.5319 C   0  0  0  0  0  0  0  0  0  0  0  0
    5.0564   -0.9058   -3.2894 C   0  0  0  0  0  0  0  0  0  0  0  0
    4.8245    0.2338   -2.3893 C   0  0  0  0  0  0  0  0  0  0  0  0
    5.7122    0.1287   -1.2689 O   0  0  0  0  0  0  0  0  0  0  0  0
    5.5927    1.1303   -0.3633 C   0  0  0  0  0  0  0  0  0  0  0  0
    4.8131    2.0699   -0.4371 O   0  0  0  0  0  0  0  0  0  0  0  0
    6.5295    0.9708    0.7663 C   0  0  0  0  0  0  0  0  0  0  0  0
    7.3976   -0.0452    0.8915 C   0  0  0  0  0  0  0  0  0  0  0  0
    8.3328   -0.1870    2.0164 C   0  0  0  0  0  0  0  0  0  0  0  0
    8.0090    0.1684    3.3185 C   0  0  0  0  0  0  0  0  0  0  0  0
    8.9380   -0.0227    4.3522 C   0  0  0  0  0  0  0  0  0  0  0  0
   10.2274   -0.5784    4.1789 C   0  0  0  0  0  0  0  0  0  0  0  0
   10.9884   -0.7035    5.1995 O   0  0  0  0  0  0  0  0  0  0  0  0
   10.5215   -0.9465    2.8365 C   0  0  0  0  0  0  0  0  0  0  0  0
   11.6791   -1.5158    2.3387 O   0  0  0  0  0  0  0  0  0  0  0  0
   12.7420   -1.7573    3.2466 C   0  0  0  0  0  0  0  0  0  0  0  0
    9.5860   -0.7558    1.7930 C   0  0  0  0  0  0  0  0  0  0  0  0
    1.9853  -14.4522  -23.8747 H   0  0  0  0  0  0  0  0  0  0  0  0
    0.3766  -14.6868  -24.5709 H   0  0  0  0  0  0  0  0  0  0  0  0
    0.7662  -15.3934  -22.9972 H   0  0  0  0  0  0  0  0  0  0  0  0
   -0.6423  -13.3488  -22.7683 H   0  0  0  0  0  0  0  0  0  0  0  0
    0.5720  -12.4115  -23.6423 H   0  0  0  0  0  0  0  0  0  0  0  0
    2.2653  -12.9547  -21.8713 H   0  0  0  0  0  0  0  0  0  0  0  0
    1.0518  -13.8915  -20.9978 H   0  0  0  0  0  0  0  0  0  0  0  0
   -0.3596  -11.8423  -20.7562 H   0  0  0  0  0  0  0  0  0  0  0  0
    0.8572  -10.9031  -21.6320 H   0  0  0  0  0  0  0  0  0  0  0  0
    1.3627  -12.4627  -19.0320 H   0  0  0  0  0  0  0  0  0  0  0  0
    2.5773  -11.5251  -19.9062 H   0  0  0  0  0  0  0  0  0  0  0  0
    1.1967   -9.4676  -19.6156 H   0  0  0  0  0  0  0  0  0  0  0  0
   -0.0165  -10.4041  -18.7423 H   0  0  0  0  0  0  0  0  0  0  0  0
    1.6979  -11.0163  -17.0197 H   0  0  0  0  0  0  0  0  0  0  0  0
    2.9093  -10.0811  -17.8916 H   0  0  0  0  0  0  0  0  0  0  0  0
    1.5304   -8.0387  -17.6081 H   0  0  0  0  0  0  0  0  0  0  0  0
    0.3250   -8.9692  -16.7404 H   0  0  0  0  0  0  0  0  0  0  0  0
    3.2007   -8.5749  -15.8657 H   0  0  0  0  0  0  0  0  0  0  0  0
    1.9932   -9.5071  -14.9965 H   0  0  0  0  0  0  0  0  0  0  0  0
    1.8212   -6.5150  -15.5865 H   0  0  0  0  0  0  0  0  0  0  0  0
    0.6045   -7.4542  -14.7108 H   0  0  0  0  0  0  0  0  0  0  0  0
    3.5605   -7.2267  -13.9259 H   0  0  0  0  0  0  0  0  0  0  0  0
    2.3489   -8.1620  -13.0539 H   0  0  0  0  0  0  0  0  0  0  0  0
    2.2582   -5.1523  -13.5058 H   0  0  0  0  0  0  0  0  0  0  0  0
    1.0498   -6.0852  -12.6359 H   0  0  0  0  0  0  0  0  0  0  0  0
    2.7725   -6.7956  -10.9988 H   0  0  0  0  0  0  0  0  0  0  0  0
    3.9848   -5.8597  -11.8714 H   0  0  0  0  0  0  0  0  0  0  0  0
    1.4558   -4.6960  -10.5643 H   0  0  0  0  0  0  0  0  0  0  0  0
    2.6763   -3.7539  -11.4428 H   0  0  0  0  0  0  0  0  0  0  0  0
    4.4485   -4.6307   -9.9054 H   0  0  0  0  0  0  0  0  0  0  0  0
    3.2387   -5.5646   -9.0345 H   0  0  0  0  0  0  0  0  0  0  0  0
    2.0626   -3.4739   -8.4285 H   0  0  0  0  0  0  0  0  0  0  0  0
    3.2709   -2.5411   -9.2982 H   0  0  0  0  0  0  0  0  0  0  0  0
    3.8284   -4.3614   -6.9142 H   0  0  0  0  0  0  0  0  0  0  0  0
    5.0455   -3.4218   -7.7903 H   0  0  0  0  0  0  0  0  0  0  0  0
    3.7973   -1.2923   -7.2429 H   0  0  0  0  0  0  0  0  0  0  0  0
    2.5786   -2.2331   -6.3656 H   0  0  0  0  0  0  0  0  0  0  0  0
    5.5700   -2.2322   -5.7662 H   0  0  0  0  0  0  0  0  0  0  0  0
    4.3662   -3.1614   -4.8997 H   0  0  0  0  0  0  0  0  0  0  0  0
    4.4377   -0.1777   -5.1173 H   0  0  0  0  0  0  0  0  0  0  0  0
    3.2466   -1.0972   -4.2599 H   0  0  0  0  0  0  0  0  0  0  0  0
    6.1274   -0.9089   -3.5420 H   0  0  0  0  0  0  0  0  0  0  0  0
    4.9445   -1.8221   -2.6905 H   0  0  0  0  0  0  0  0  0  0  0  0
    3.7886    0.2311   -2.0299 H   0  0  0  0  0  0  0  0  0  0  0  0
    5.0152    1.1781   -2.9130 H   0  0  0  0  0  0  0  0  0  0  0  0
    6.4721    1.7647    1.5026 H   0  0  0  0  0  0  0  0  0  0  0  0
    7.4669   -0.8219    0.1343 H   0  0  0  0  0  0  0  0  0  0  0  0
    7.0405    0.5850    3.5717 H   0  0  0  0  0  0  0  0  0  0  0  0
    8.6453    0.2722    5.3613 H   0  0  0  0  0  0  0  0  0  0  0  0
   13.5653   -2.1910    2.6687 H   0  0  0  0  0  0  0  0  0  0  0  0
   13.1247   -0.8280    3.6798 H   0  0  0  0  0  0  0  0  0  0  0  0
   12.4688   -2.5016    4.0009 H   0  0  0  0  0  0  0  0  0  0  0  0
    9.8756   -1.0609    0.7910 H   0  0  0  0  0  0  0  0  0  0  0  0
  1  2  1  0
  2  3  1  0
  3  4  1  0
  4  5  1  0
  5  6  1  0
  6  7  1  0
  7  8  1  0
  8  9  1  0
  9 10  1  0
 10 11  1  0
 11 12  1  0
 12 13  1  0
 13 14  1  0
 14 15  1  0
 15 16  1  0
 16 17  1  0
 17 18  1  0
 18 19  1  0
 19 20  1  0
 20 21  1  0
 21 22  1  0
 22 23  1  0
 23 24  1  0
 24 25  2  0
 24 26  1  0
 26 27  2  0
 27 28  1  0
 28 29  2  0
 29 30  1  0
 30 31  2  0
 31 32  1  0
 31 33  1  0
 33 34  1  0
 34 35  1  0
 33 36  2  0
 36 28  1  0
  1 37  1  0
  1 38  1  0
  1 39  1  0
  2 40  1  0
  2 41  1  0
  3 42  1  0
  3 43  1  0
  4 44  1  0
  4 45  1  0
  5 46  1  0
  5 47  1  0
  6 48  1  0
  6 49  1  0
  7 50  1  0
  7 51  1  0
  8 52  1  0
  8 53  1  0
  9 54  1  0
  9 55  1  0
 10 56  1  0
 10 57  1  0
 11 58  1  0
 11 59  1  0
 12 60  1  0
 12 61  1  0
 13 62  1  0
 13 63  1  0
 14 64  1  0
 14 65  1  0
 15 66  1  0
 15 67  1  0
 16 68  1  0
 16 69  1  0
 17 70  1  0
 17 71  1  0
 18 72  1  0
 18 73  1  0
 19 74  1  0
 19 75  1  0
 20 76  1  0
 20 77  1  0
 21 78  1  0
 21 79  1  0
 22 80  1  0
 22 81  1  0
 26 82  1  0
 27 83  1  0
 29 84  1  0
 30 85  1  0
 35 86  1  0
 35 87  1  0
 35 88  1  0
 36 89  1  0
M  CHG  1  32  -1
M  END
$$$$
