
     RDKit          3D

 89 89  0  0  0  0  0  0  0  0999 V2000
   -4.4399   -7.8113  -23.6336 C   0  0  0  0  0  0  0  0  0  0  0  0
   -4.6737   -6.6494  -22.7160 C   0  0  0  0  0  0  0  0  0  0  0  0
   -3.7340   -6.7252  -21.5090 C   0  0  0  0  0  0  0  0  0  0  0  0
   -3.9578   -5.5619  -20.5764 C   0  0  0  0  0  0  0  0  0  0  0  0
   -2.9922   -5.6938  -19.3935 C   0  0  0  0  0  0  0  0  0  0  0  0
   -3.1849   -4.5470  -18.4359 C   0  0  0  0  0  0  0  0  0  0  0  0
   -2.2284   -4.6604  -17.2459 C   0  0  0  0  0  0  0  0  0  0  0  0
   -2.4072   -3.5284  -16.2850 C   0  0  0  0  0  0  0  0  0  0  0  0
   -1.5023   -3.5703  -15.0895 C   0  0  0  0  0  0  0  0  0  0  0  0
   -1.6973   -2.4254  -14.1368 C   0  0  0  0  0  0  0  0  0  0  0  0
   -0.7165   -2.6108  -12.9904 C   0  0  0  0  0  0  0  0  0  0  0  0
   -0.8272   -1.5096  -11.9687 C   0  0  0  0  0  0  0  0  0  0  0  0
    0.1322   -1.6761  -10.8315 C   0  0  0  0  0  0  0  0  0  0  0  0
   -0.0025   -0.5451   -9.8110 C   0  0  0  0  0  0  0  0  0  0  0  0
    1.0136   -0.8390   -8.7316 C   0  0  0  0  0  0  0  0  0  0  0  0
    1.0063    0.1870   -7.6485 C   0  0  0  0  0  0  0  0  0  0  0  0
    2.0142   -0.1026   -6.5758 C   0  0  0  0  0  0  0  0  0  0  0  0
    1.9356    1.0088   -5.4994 C   0  0  0  0  0  0  0  0  0  0  0  0
    2.9515    0.6860   -4.4512 C   0  0  0  0  0  0  0  0  0  0  0  0
    3.0083    1.6479   -3.3485 C   0  0  0  0  0  0  0  0  0  0  0  0
    3.9194    1.5437   -2.2110 C   0  0  0  0  0  0  0  0  0  0  0  0
    3.9507    2.5284   -1.1190 C   0  0  0  0  0  0  0  0  0  0  0  0
    4.9773    2.2055   -0.1680 O   0  0  0  0  0  0  0  0  0  0  0  0
    4.6038    1.3836    0.8467 C   0  0  0  0  0  0  0  0  0  0  0  0
    3.4975    0.8976    1.0153 O   0  0  0  0  0  0  0  0  0  0  0  0
    5.7785    1.1742    1.7138 C   0  0  0  0  0  0  0  0  0  0  0  0
    5.6901    0.3844    2.7941 C   0  0  0  0  0  0  0  0  0  0  0  0
    6.8100    0.1395    3.7129 C   0  0  0  0  0  0  0  0  0  0  0  0
    6.5548   -0.0348    5.0658 C   0  0  0  0  0  0  0  0  0  0  0  0
    7.6095   -0.2829    5.9567 C   0  0  0  0  0  0  0  0  0  0  0  0
    8.9689   -0.3876    5.5789 C   0  0  0  0  0  0  0  0  0  0  0  0
    9.8472   -0.6035    6.4835 O   0  0  0  0  0  0  0  0  0  0  0  0
    9.1932   -0.2317    4.1826 C   0  0  0  0  0  0  0  0  0  0  0  0
   10.3930   -0.2899    3.4972 O   0  0  0  0  0  0  0  0  0  0  0  0
   11.5567   -0.6387    4.2299 C   0  0  0  0  0  0  0  0  0  0  0  0
    8.1315    0.0233    3.2831 C   0  0  0  0  0  0  0  0  0  0  0  0
   -3.4121   -7.8211  -24.0110 H   0  0  0  0  0  0  0  0  0  0  0  0
   -5.1114   -7.7576  -24.4966 H   0  0  0  0  0  0  0  0  0  0  0  0
   -4.6247   -8.7638  -23.1261 H   0  0  0  0  0  0  0  0  0  0  0  0
   -5.7166   -6.6508  -22.3784 H   0  0  0  0  0  0  0  0  0  0  0  0
   -4.5089   -5.7119  -23.2597 H   0  0  0  0  0  0  0  0  0  0  0  0
   -2.6939   -6.7323  -21.8585 H   0  0  0  0  0  0  0  0  0  0  0  0
   -3.9009   -7.6707  -20.9777 H   0  0  0  0  0  0  0  0  0  0  0  0
   -4.9935   -5.5550  -20.2164 H   0  0  0  0  0  0  0  0  0  0  0  0
   -3.7833   -4.6141  -21.0995 H   0  0  0  0  0  0  0  0  0  0  0  0
   -3.1659   -6.6459  -18.8771 H   0  0  0  0  0  0  0  0  0  0  0  0
   -1.9578   -5.7067  -19.7587 H   0  0  0  0  0  0  0  0  0  0  0  0
   -3.0131   -3.5947  -18.9527 H   0  0  0  0  0  0  0  0  0  0  0  0
   -4.2198   -4.5328  -18.0721 H   0  0  0  0  0  0  0  0  0  0  0  0
   -2.3990   -5.6145  -16.7319 H   0  0  0  0  0  0  0  0  0  0  0  0
   -1.1940   -4.6778  -17.6111 H   0  0  0  0  0  0  0  0  0  0  0  0
   -2.2504   -2.5795  -16.8146 H   0  0  0  0  0  0  0  0  0  0  0  0
   -3.4494   -3.5116  -15.9397 H   0  0  0  0  0  0  0  0  0  0  0  0
   -0.4607   -3.5856  -15.4369 H   0  0  0  0  0  0  0  0  0  0  0  0
   -1.6617   -4.5193  -14.5605 H   0  0  0  0  0  0  0  0  0  0  0  0
   -1.5160   -1.4694  -14.6418 H   0  0  0  0  0  0  0  0  0  0  0  0
   -2.7261   -2.4102  -13.7588 H   0  0  0  0  0  0  0  0  0  0  0  0
    0.3086   -2.6405  -13.3815 H   0  0  0  0  0  0  0  0  0  0  0  0
   -0.8964   -3.5774  -12.5022 H   0  0  0  0  0  0  0  0  0  0  0  0
   -0.6512   -0.5428  -12.4575 H   0  0  0  0  0  0  0  0  0  0  0  0
   -1.8532   -1.4772  -11.5804 H   0  0  0  0  0  0  0  0  0  0  0  0
   -0.0476   -2.6412  -10.3405 H   0  0  0  0  0  0  0  0  0  0  0  0
    1.1582   -1.7038  -11.2204 H   0  0  0  0  0  0  0  0  0  0  0  0
   -1.0166   -0.5198   -9.3965 H   0  0  0  0  0  0  0  0  0  0  0  0
    0.1973    0.4239  -10.2823 H   0  0  0  0  0  0  0  0  0  0  0  0
    2.0177   -0.8910   -9.1730 H   0  0  0  0  0  0  0  0  0  0  0  0
    0.8143   -1.8265   -8.2949 H   0  0  0  0  0  0  0  0  0  0  0  0
    0.0037    0.2414   -7.2049 H   0  0  0  0  0  0  0  0  0  0  0  0
    1.2055    1.1757   -8.0819 H   0  0  0  0  0  0  0  0  0  0  0  0
    1.8134   -1.0794   -6.1190 H   0  0  0  0  0  0  0  0  0  0  0  0
    3.0241   -0.1382   -7.0024 H   0  0  0  0  0  0  0  0  0  0  0  0
    2.1403    1.9856   -5.9532 H   0  0  0  0  0  0  0  0  0  0  0  0
    0.9281    1.0432   -5.0686 H   0  0  0  0  0  0  0  0  0  0  0  0
    3.9454    0.6195   -4.9132 H   0  0  0  0  0  0  0  0  0  0  0  0
    2.7480   -0.3114   -4.0395 H   0  0  0  0  0  0  0  0  0  0  0  0
    3.1782    2.6398   -3.7933 H   0  0  0  0  0  0  0  0  0  0  0  0
    1.9938    1.7183   -2.9285 H   0  0  0  0  0  0  0  0  0  0  0  0
    4.9413    1.4718   -2.6122 H   0  0  0  0  0  0  0  0  0  0  0  0
    3.7649    0.5523   -1.7610 H   0  0  0  0  0  0  0  0  0  0  0  0
    2.9764    2.6259   -0.6249 H   0  0  0  0  0  0  0  0  0  0  0  0
    4.1940    3.5220   -1.5115 H   0  0  0  0  0  0  0  0  0  0  0  0
    6.6916    1.6914    1.4458 H   0  0  0  0  0  0  0  0  0  0  0  0
    4.7509   -0.1001    3.0519 H   0  0  0  0  0  0  0  0  0  0  0  0
    5.5466    0.0287    5.4621 H   0  0  0  0  0  0  0  0  0  0  0  0
    7.3667   -0.4006    7.0139 H   0  0  0  0  0  0  0  0  0  0  0  0
   12.3825   -0.6956    3.5124 H   0  0  0  0  0  0  0  0  0  0  0  0
   11.8272    0.1388    4.9507 H   0  0  0  0  0  0  0  0  0  0  0  0
   11.4713   -1.6318    4.6821 H   0  0  0  0  0  0  0  0  0  0  0  0
    8.3780    0.1152    2.2296 H   0  0  0  0  0  0  0  0  0  0  0  0
  1  2  1  0
  2  3  1  0
  3  4  1  0
  4  5  1  0
  5  6  1  0
  6  7  1  0
  7  8  1  0
  8  9  1  0
  9 10  1  0
 10 11  1  0
 11 12  1  0
 12 13  1  0
 13 14  1  0
 14 15  1  0
 15 16  1  0
 16 17  1  0
 17 18  1  0
 18 19  1  0
 19 20  1  0
 20 21  1  0
 21 22  1  0
 22 23  1  0
 23 24  1  0
 24 25  2  0
 24 26  1  0
 26 27  2  0
 27 28  1  0
 28 29  2  0
 29 30  1  0
 30 31  2  0
 31 32  1  0
 31 33  1  0
 33 34  1  0
 34 35  1  0
 33 36  2  0
 36 28  1  0
  1 37  1  0
  1 38  1  0
  1 39  1  0
  2 40  1  0
  2 41  1  0
  3 42  1  0
  3 43  1  0
  4 44  1  0
  4 45  1  0
  5 46  1  0
  5 47  1  0
  6 48  1  0
  6 49  1  0
  7 50  1  0
  7 51  1  0
  8 52  1  0
  8 53  1  0
  9 54  1  0
  9 55  1  0
 10 56  1  0
 10 57  1  0
 11 58  1  0
 11 59  1  0
 12 60  1  0
 12 61  1  0
 13 62  1  0
 13 63  1  0
 14 64  1  0
 14 65  1  0
 15 66  1  0
 15 67  1  0
 16 68  1  0
 16 69  1  0
 17 70  1  0
 17 71  1  0
 18 72  1  0
 18 73  1  0
 19 74  1  0
 19 75  1  0
 20 76  1  0
 20 77  1  0
 21 78  1  0
 21 79  1  0
 22 80  1  0
 22 81  1  0
 26 82  1  0
 27 83  1  0
 29 84  1  0
 30 85  1  0
 35 86  1  0
 35 87  1  0
 35 88  1  0
 36 89  1  0
M  CHG  1  32  -1
M  END
$$$$
