
     RDKit          3D

 89 89  0  0  0  0  0  0  0  0999 V2000
   22.0143   10.5340  -19.1984 C   0  0  0  0  0  0  0  0  0  0  0  0
   21.4070   10.7692  -17.8485 C   0  0  0  0  0  0  0  0  0  0  0  0
   20.4062    9.6595  -17.5129 C   0  0  0  0  0  0  0  0  0  0  0  0
   19.7867    9.8830  -16.1567 C   0  0  0  0  0  0  0  0  0  0  0  0
   18.7987    8.7445  -15.8795 C   0  0  0  0  0  0  0  0  0  0  0  0
   18.1565    8.9317  -14.5298 C   0  0  0  0  0  0  0  0  0  0  0  0
   17.1650    7.8035  -14.2336 C   0  0  0  0  0  0  0  0  0  0  0  0
   16.5182    7.9748  -12.8961 C   0  0  0  0  0  0  0  0  0  0  0  0
   15.5312    6.9050  -12.5339 C   0  0  0  0  0  0  0  0  0  0  0  0
   14.8928    7.0950  -11.1874 C   0  0  0  0  0  0  0  0  0  0  0  0
   13.9280    5.9406  -10.9705 C   0  0  0  0  0  0  0  0  0  0  0  0
   13.2276    6.0323   -9.6402 C   0  0  0  0  0  0  0  0  0  0  0  0
   12.2727    4.9026   -9.4094 C   0  0  0  0  0  0  0  0  0  0  0  0
   11.5769    5.0216   -8.0528 C   0  0  0  0  0  0  0  0  0  0  0  0
   10.6535    3.8292   -7.9557 C   0  0  0  0  0  0  0  0  0  0  0  0
    9.8931    3.8013   -6.6723 C   0  0  0  0  0  0  0  0  0  0  0  0
    8.9758    2.6184   -6.5736 C   0  0  0  0  0  0  0  0  0  0  0  0
    8.2316    2.6718   -5.2159 C   0  0  0  0  0  0  0  0  0  0  0  0
    7.3301    1.4807   -5.1552 C   0  0  0  0  0  0  0  0  0  0  0  0
    6.5459    1.3792   -3.9230 C   0  0  0  0  0  0  0  0  0  0  0  0
    5.5983    0.3045   -3.6357 C   0  0  0  0  0  0  0  0  0  0  0  0
    4.8252    0.2319   -2.3869 C   0  0  0  0  0  0  0  0  0  0  0  0
    5.7015    0.1072   -1.2566 O   0  0  0  0  0  0  0  0  0  0  0  0
    5.9284    1.2331   -0.5374 C   0  0  0  0  0  0  0  0  0  0  0  0
    5.4607    2.3398   -0.7653 O   0  0  0  0  0  0  0  0  0  0  0  0
    6.8415    0.9868    0.5966 C   0  0  0  0  0  0  0  0  0  0  0  0
    7.3912   -0.2039    0.8818 C   0  0  0  0  0  0  0  0  0  0  0  0
    8.3092   -0.4317    2.0066 C   0  0  0  0  0  0  0  0  0  0  0  0
    8.1721    0.2005    3.2346 C   0  0  0  0  0  0  0  0  0  0  0  0
    9.0650   -0.0865    4.2778 C   0  0  0  0  0  0  0  0  0  0  0  0
   10.1330   -1.0101    4.1880 C   0  0  0  0  0  0  0  0  0  0  0  0
   10.8828   -1.1887    5.2088 O   0  0  0  0  0  0  0  0  0  0  0  0
   10.2360   -1.6518    2.9224 C   0  0  0  0  0  0  0  0  0  0  0  0
   11.1560   -2.6007    2.5158 O   0  0  0  0  0  0  0  0  0  0  0  0
   12.1585   -2.9903    3.4408 C   0  0  0  0  0  0  0  0  0  0  0  0
    9.3361   -1.3649    1.8697 C   0  0  0  0  0  0  0  0  0  0  0  0
   22.5500    9.5796  -19.2341 H   0  0  0  0  0  0  0  0  0  0  0  0
   22.7298   11.3270  -19.4388 H   0  0  0  0  0  0  0  0  0  0  0  0
   21.2508   10.5246  -19.9833 H   0  0  0  0  0  0  0  0  0  0  0  0
   20.9035   11.7429  -17.8359 H   0  0  0  0  0  0  0  0  0  0  0  0
   22.1974   10.8017  -17.0897 H   0  0  0  0  0  0  0  0  0  0  0  0
   20.9182    8.6893  -17.5372 H   0  0  0  0  0  0  0  0  0  0  0  0
   19.6251    9.6299  -18.2830 H   0  0  0  0  0  0  0  0  0  0  0  0
   19.2654   10.8473  -16.1293 H   0  0  0  0  0  0  0  0  0  0  0  0
   20.5619    9.9041  -15.3816 H   0  0  0  0  0  0  0  0  0  0  0  0
   18.0287    8.7231  -16.6607 H   0  0  0  0  0  0  0  0  0  0  0  0
   19.3230    7.7816  -15.9142 H   0  0  0  0  0  0  0  0  0  0  0  0
   18.9265    8.9552  -13.7487 H   0  0  0  0  0  0  0  0  0  0  0  0
   17.6337    9.8956  -14.4943 H   0  0  0  0  0  0  0  0  0  0  0  0
   16.3973    7.7790  -15.0171 H   0  0  0  0  0  0  0  0  0  0  0  0
   17.6882    6.8400  -14.2726 H   0  0  0  0  0  0  0  0  0  0  0  0
   17.2969    8.0144  -12.1230 H   0  0  0  0  0  0  0  0  0  0  0  0
   16.0124    8.9488  -12.8638 H   0  0  0  0  0  0  0  0  0  0  0  0
   16.0393    5.9321  -12.5653 H   0  0  0  0  0  0  0  0  0  0  0  0
   14.7526    6.8681  -13.3074 H   0  0  0  0  0  0  0  0  0  0  0  0
   15.6543    7.1078  -10.3989 H   0  0  0  0  0  0  0  0  0  0  0  0
   14.3578    8.0509  -11.1465 H   0  0  0  0  0  0  0  0  0  0  0  0
   14.4711    4.9885  -11.0292 H   0  0  0  0  0  0  0  0  0  0  0  0
   13.1800    5.9276  -11.7737 H   0  0  0  0  0  0  0  0  0  0  0  0
   13.9756    6.0493   -8.8372 H   0  0  0  0  0  0  0  0  0  0  0  0
   12.6878    6.9860   -9.5799 H   0  0  0  0  0  0  0  0  0  0  0  0
   11.5224    4.8892  -10.2105 H   0  0  0  0  0  0  0  0  0  0  0  0
   12.8142    3.9494   -9.4655 H   0  0  0  0  0  0  0  0  0  0  0  0
   11.0125    5.9589   -7.9910 H   0  0  0  0  0  0  0  0  0  0  0  0
   12.3130    5.0129   -7.2410 H   0  0  0  0  0  0  0  0  0  0  0  0
   11.2347    2.9025   -8.0513 H   0  0  0  0  0  0  0  0  0  0  0  0
    9.9455    3.8403   -8.7948 H   0  0  0  0  0  0  0  0  0  0  0  0
    9.3107    4.7265   -6.5737 H   0  0  0  0  0  0  0  0  0  0  0  0
   10.5983    3.7899   -5.8311 H   0  0  0  0  0  0  0  0  0  0  0  0
    8.2512    2.6293   -7.3970 H   0  0  0  0  0  0  0  0  0  0  0  0
    9.5482    1.6858   -6.6490 H   0  0  0  0  0  0  0  0  0  0  0  0
    8.9541    2.6567   -4.3914 H   0  0  0  0  0  0  0  0  0  0  0  0
    7.6553    3.6014   -5.1402 H   0  0  0  0  0  0  0  0  0  0  0  0
    7.9251    0.5653   -5.2718 H   0  0  0  0  0  0  0  0  0  0  0  0
    6.6423    1.4988   -6.0109 H   0  0  0  0  0  0  0  0  0  0  0  0
    7.2660    1.3992   -3.0923 H   0  0  0  0  0  0  0  0  0  0  0  0
    5.9898    2.3222   -3.8139 H   0  0  0  0  0  0  0  0  0  0  0  0
    6.1602   -0.6373   -3.7195 H   0  0  0  0  0  0  0  0  0  0  0  0
    4.8767    0.2711   -4.4637 H   0  0  0  0  0  0  0  0  0  0  0  0
    4.1912   -0.6620   -2.3864 H   0  0  0  0  0  0  0  0  0  0  0  0
    4.1463    1.0863   -2.2823 H   0  0  0  0  0  0  0  0  0  0  0  0
    7.0544    1.8687    1.1907 H   0  0  0  0  0  0  0  0  0  0  0  0
    7.1954   -1.0761    0.2634 H   0  0  0  0  0  0  0  0  0  0  0  0
    7.3766    0.9127    3.4235 H   0  0  0  0  0  0  0  0  0  0  0  0
    8.9243    0.4337    5.2267 H   0  0  0  0  0  0  0  0  0  0  0  0
   12.7933   -3.7258    2.9349 H   0  0  0  0  0  0  0  0  0  0  0  0
   12.8100   -2.1532    3.7098 H   0  0  0  0  0  0  0  0  0  0  0  0
   11.7309   -3.4981    4.3108 H   0  0  0  0  0  0  0  0  0  0  0  0
    9.4714   -1.8928    0.9295 H   0  0  0  0  0  0  0  0  0  0  0  0
  1  2  1  0
  2  3  1  0
  3  4  1  0
  4  5  1  0
  5  6  1  0
  6  7  1  0
  7  8  1  0
  8  9  1  0
  9 10  1  0
 10 11  1  0
 11 12  1  0
 12 13  1  0
 13 14  1  0
 14 15  1  0
 15 16  1  0
 16 17  1  0
 17 18  1  0
 18 19  1  0
 19 20  1  0
 20 21  1  0
 21 22  1  0
 22 23  1  0
 23 24  1  0
 24 25  2  0
 24 26  1  0
 26 27  2  0
 27 28  1  0
 28 29  2  0
 29 30  1  0
 30 31  2  0
 31 32  1  0
 31 33  1  0
 33 34  1  0
 34 35  1  0
 33 36  2  0
 36 28  1  0
  1 37  1  0
  1 38  1  0
  1 39  1  0
  2 40  1  0
  2 41  1  0
  3 42  1  0
  3 43  1  0
  4 44  1  0
  4 45  1  0
  5 46  1  0
  5 47  1  0
  6 48  1  0
  6 49  1  0
  7 50  1  0
  7 51  1  0
  8 52  1  0
  8 53  1  0
  9 54  1  0
  9 55  1  0
 10 56  1  0
 10 57  1  0
 11 58  1  0
 11 59  1  0
 12 60  1  0
 12 61  1  0
 13 62  1  0
 13 63  1  0
 14 64  1  0
 14 65  1  0
 15 66  1  0
 15 67  1  0
 16 68  1  0
 16 69  1  0
 17 70  1  0
 17 71  1  0
 18 72  1  0
 18 73  1  0
 19 74  1  0
 19 75  1  0
 20 76  1  0
 20 77  1  0
 21 78  1  0
 21 79  1  0
 22 80  1  0
 22 81  1  0
 26 82  1  0
 27 83  1  0
 29 84  1  0
 30 85  1  0
 35 86  1  0
 35 87  1  0
 35 88  1  0
 36 89  1  0
M  CHG  1  32  -1
M  END
$$$$
