
     RDKit          3D

 89 89  0  0  0  0  0  0  0  0999 V2000
    5.7694   -5.6854  -25.8872 C   0  0  0  0  0  0  0  0  0  0  0  0
    5.8915   -4.4494  -25.0482 C   0  0  0  0  0  0  0  0  0  0  0  0
    5.6272   -4.7759  -23.5754 C   0  0  0  0  0  0  0  0  0  0  0  0
    5.7467   -3.5412  -22.7186 C   0  0  0  0  0  0  0  0  0  0  0  0
    5.4723   -3.9312  -21.2620 C   0  0  0  0  0  0  0  0  0  0  0  0
    5.5824   -2.7214  -20.3712 C   0  0  0  0  0  0  0  0  0  0  0  0
    5.3115   -3.0904  -18.9103 C   0  0  0  0  0  0  0  0  0  0  0  0
    5.4170   -1.8992  -18.0121 C   0  0  0  0  0  0  0  0  0  0  0  0
    5.1639   -2.1822  -16.5610 C   0  0  0  0  0  0  0  0  0  0  0  0
    5.2745   -0.9736  -15.6757 C   0  0  0  0  0  0  0  0  0  0  0  0
    4.9933   -1.4219  -14.2508 C   0  0  0  0  0  0  0  0  0  0  0  0
    5.0784   -0.2799  -13.2723 C   0  0  0  0  0  0  0  0  0  0  0  0
    4.8041   -0.7033  -11.8627 C   0  0  0  0  0  0  0  0  0  0  0  0
    4.8972    0.4752  -10.8926 C   0  0  0  0  0  0  0  0  0  0  0  0
    4.6009   -0.0921   -9.5235 C   0  0  0  0  0  0  0  0  0  0  0  0
    4.6536    0.9465   -8.4536 C   0  0  0  0  0  0  0  0  0  0  0  0
    4.3597    0.3858   -7.0936 C   0  0  0  0  0  0  0  0  0  0  0  0
    4.4364    1.5295   -6.0514 C   0  0  0  0  0  0  0  0  0  0  0  0
    4.1387    0.9333   -4.7133 C   0  0  0  0  0  0  0  0  0  0  0  0
    4.1704    1.8899   -3.6051 C   0  0  0  0  0  0  0  0  0  0  0  0
    3.9126    1.5423   -2.2095 C   0  0  0  0  0  0  0  0  0  0  0  0
    3.9525    2.5288   -1.1194 C   0  0  0  0  0  0  0  0  0  0  0  0
    3.6066    1.9201    0.1346 O   0  0  0  0  0  0  0  0  0  0  0  0
    4.6407    1.3913    0.8385 C   0  0  0  0  0  0  0  0  0  0  0  0
    5.8139    1.3800    0.5040 O   0  0  0  0  0  0  0  0  0  0  0  0
    4.0945    0.8235    2.0855 C   0  0  0  0  0  0  0  0  0  0  0  0
    4.9059    0.2211    2.9673 C   0  0  0  0  0  0  0  0  0  0  0  0
    4.4397   -0.3540    4.2361 C   0  0  0  0  0  0  0  0  0  0  0  0
    5.2653   -0.3033    5.3505 C   0  0  0  0  0  0  0  0  0  0  0  0
    4.8431   -0.8589    6.5673 C   0  0  0  0  0  0  0  0  0  0  0  0
    3.6003   -1.5055    6.7640 C   0  0  0  0  0  0  0  0  0  0  0  0
    3.3180   -1.9631    7.9247 O   0  0  0  0  0  0  0  0  0  0  0  0
    2.7898   -1.5650    5.5960 C   0  0  0  0  0  0  0  0  0  0  0  0
    1.5375   -2.1338    5.4520 O   0  0  0  0  0  0  0  0  0  0  0  0
    0.9992   -2.8370    6.5604 C   0  0  0  0  0  0  0  0  0  0  0  0
    3.2116   -1.0012    4.3691 C   0  0  0  0  0  0  0  0  0  0  0  0
    6.4914   -6.4492  -25.5799 H   0  0  0  0  0  0  0  0  0  0  0  0
    5.9583   -5.4526  -26.9401 H   0  0  0  0  0  0  0  0  0  0  0  0
    4.7660   -6.1182  -25.8162 H   0  0  0  0  0  0  0  0  0  0  0  0
    5.1772   -3.6950  -25.3978 H   0  0  0  0  0  0  0  0  0  0  0  0
    6.8956   -4.0246  -25.1625 H   0  0  0  0  0  0  0  0  0  0  0  0
    6.3412   -5.5380  -23.2386 H   0  0  0  0  0  0  0  0  0  0  0  0
    4.6239   -5.2085  -23.4738 H   0  0  0  0  0  0  0  0  0  0  0  0
    5.0287   -2.7792  -23.0447 H   0  0  0  0  0  0  0  0  0  0  0  0
    6.7506   -3.1095  -22.8088 H   0  0  0  0  0  0  0  0  0  0  0  0
    4.4697   -4.3683  -21.1775 H   0  0  0  0  0  0  0  0  0  0  0  0
    6.1886   -4.6981  -20.9421 H   0  0  0  0  0  0  0  0  0  0  0  0
    6.5844   -2.2831  -20.4570 H   0  0  0  0  0  0  0  0  0  0  0  0
    4.8674   -1.9537  -20.6922 H   0  0  0  0  0  0  0  0  0  0  0  0
    4.3105   -3.5316  -18.8262 H   0  0  0  0  0  0  0  0  0  0  0  0
    6.0249   -3.8605  -18.5914 H   0  0  0  0  0  0  0  0  0  0  0  0
    6.4165   -1.4573  -18.1175 H   0  0  0  0  0  0  0  0  0  0  0  0
    4.7106   -1.1300  -18.3512 H   0  0  0  0  0  0  0  0  0  0  0  0
    5.8722   -2.9506  -16.2236 H   0  0  0  0  0  0  0  0  0  0  0  0
    4.1634   -2.6228  -16.4576 H   0  0  0  0  0  0  0  0  0  0  0  0
    6.2769   -0.5355  -15.7461 H   0  0  0  0  0  0  0  0  0  0  0  0
    4.5551   -0.2052  -15.9819 H   0  0  0  0  0  0  0  0  0  0  0  0
    5.7088   -2.2020  -13.9602 H   0  0  0  0  0  0  0  0  0  0  0  0
    3.9942   -1.8731  -14.1951 H   0  0  0  0  0  0  0  0  0  0  0  0
    6.0760    0.1738  -13.3307 H   0  0  0  0  0  0  0  0  0  0  0  0
    4.3658    0.5019  -13.5650 H   0  0  0  0  0  0  0  0  0  0  0  0
    3.8044   -1.1528  -11.8045 H   0  0  0  0  0  0  0  0  0  0  0  0
    5.5200   -1.4819  -11.5695 H   0  0  0  0  0  0  0  0  0  0  0  0
    4.1711    1.2514  -11.1595 H   0  0  0  0  0  0  0  0  0  0  0  0
    5.8983    0.9201  -10.9229 H   0  0  0  0  0  0  0  0  0  0  0  0
    5.3197   -0.8884   -9.2894 H   0  0  0  0  0  0  0  0  0  0  0  0
    3.6076   -0.5600   -9.5240 H   0  0  0  0  0  0  0  0  0  0  0  0
    3.9357    1.7442   -8.6846 H   0  0  0  0  0  0  0  0  0  0  0  0
    5.6457    1.4162   -8.4503 H   0  0  0  0  0  0  0  0  0  0  0  0
    3.3613   -0.0680   -7.0768 H   0  0  0  0  0  0  0  0  0  0  0  0
    5.0838   -0.3984   -6.8409 H   0  0  0  0  0  0  0  0  0  0  0  0
    5.4350    1.9817   -6.0635 H   0  0  0  0  0  0  0  0  0  0  0  0
    3.7103    2.3126   -6.2998 H   0  0  0  0  0  0  0  0  0  0  0  0
    4.8546    0.1273   -4.5045 H   0  0  0  0  0  0  0  0  0  0  0  0
    3.1510    0.4541   -4.7378 H   0  0  0  0  0  0  0  0  0  0  0  0
    5.1568    2.3770   -3.6267 H   0  0  0  0  0  0  0  0  0  0  0  0
    3.4711    2.7008   -3.8579 H   0  0  0  0  0  0  0  0  0  0  0  0
    4.6010    0.7264   -1.9456 H   0  0  0  0  0  0  0  0  0  0  0  0
    2.9281    1.0526   -2.1678 H   0  0  0  0  0  0  0  0  0  0  0  0
    3.2126    3.3176   -1.2949 H   0  0  0  0  0  0  0  0  0  0  0  0
    4.9250    3.0316   -1.0551 H   0  0  0  0  0  0  0  0  0  0  0  0
    3.0298    0.9290    2.2541 H   0  0  0  0  0  0  0  0  0  0  0  0
    5.9757    0.1550    2.7816 H   0  0  0  0  0  0  0  0  0  0  0  0
    6.2394    0.1729    5.3092 H   0  0  0  0  0  0  0  0  0  0  0  0
    5.5173   -0.7857    7.4222 H   0  0  0  0  0  0  0  0  0  0  0  0
    1.6317   -3.6807    6.8541 H   0  0  0  0  0  0  0  0  0  0  0  0
    0.7692   -2.1637    7.3917 H   0  0  0  0  0  0  0  0  0  0  0  0
    0.0444   -3.2647    6.2360 H   0  0  0  0  0  0  0  0  0  0  0  0
    2.5457   -1.0992    3.5170 H   0  0  0  0  0  0  0  0  0  0  0  0
  1  2  1  0
  2  3  1  0
  3  4  1  0
  4  5  1  0
  5  6  1  0
  6  7  1  0
  7  8  1  0
  8  9  1  0
  9 10  1  0
 10 11  1  0
 11 12  1  0
 12 13  1  0
 13 14  1  0
 14 15  1  0
 15 16  1  0
 16 17  1  0
 17 18  1  0
 18 19  1  0
 19 20  1  0
 20 21  1  0
 21 22  1  0
 22 23  1  0
 23 24  1  0
 24 25  2  0
 24 26  1  0
 26 27  2  0
 27 28  1  0
 28 29  2  0
 29 30  1  0
 30 31  2  0
 31 32  1  0
 31 33  1  0
 33 34  1  0
 34 35  1  0
 33 36  2  0
 36 28  1  0
  1 37  1  0
  1 38  1  0
  1 39  1  0
  2 40  1  0
  2 41  1  0
  3 42  1  0
  3 43  1  0
  4 44  1  0
  4 45  1  0
  5 46  1  0
  5 47  1  0
  6 48  1  0
  6 49  1  0
  7 50  1  0
  7 51  1  0
  8 52  1  0
  8 53  1  0
  9 54  1  0
  9 55  1  0
 10 56  1  0
 10 57  1  0
 11 58  1  0
 11 59  1  0
 12 60  1  0
 12 61  1  0
 13 62  1  0
 13 63  1  0
 14 64  1  0
 14 65  1  0
 15 66  1  0
 15 67  1  0
 16 68  1  0
 16 69  1  0
 17 70  1  0
 17 71  1  0
 18 72  1  0
 18 73  1  0
 19 74  1  0
 19 75  1  0
 20 76  1  0
 20 77  1  0
 21 78  1  0
 21 79  1  0
 22 80  1  0
 22 81  1  0
 26 82  1  0
 27 83  1  0
 29 84  1  0
 30 85  1  0
 35 86  1  0
 35 87  1  0
 35 88  1  0
 36 89  1  0
M  CHG  1  32  -1
M  END
$$$$
