
     RDKit          3D

 89 89  0  0  0  0  0  0  0  0999 V2000
   11.0586  -11.4651  -24.9394 C   0  0  0  0  0  0  0  0  0  0  0  0
   10.9254  -10.1073  -24.3188 C   0  0  0  0  0  0  0  0  0  0  0  0
   10.4885  -10.2297  -22.8560 C   0  0  0  0  0  0  0  0  0  0  0  0
   10.3503   -8.8707  -22.2181 C   0  0  0  0  0  0  0  0  0  0  0  0
    9.9127   -9.0592  -20.7614 C   0  0  0  0  0  0  0  0  0  0  0  0
    9.7630   -7.7205  -20.0870 C   0  0  0  0  0  0  0  0  0  0  0  0
    9.3259   -7.8872  -18.6294 C   0  0  0  0  0  0  0  0  0  0  0  0
    9.1726   -6.5662  -17.9452 C   0  0  0  0  0  0  0  0  0  0  0  0
    8.7452   -6.6479  -16.5097 C   0  0  0  0  0  0  0  0  0  0  0  0
    8.5970   -5.3112  -15.8405 C   0  0  0  0  0  0  0  0  0  0  0  0
    8.1634   -5.5625  -14.4055 C   0  0  0  0  0  0  0  0  0  0  0  0
    7.9838   -4.2797  -13.6369 C   0  0  0  0  0  0  0  0  0  0  0  0
    7.5566   -4.5082  -12.2203 C   0  0  0  0  0  0  0  0  0  0  0  0
    7.3822   -3.1899  -11.4651 C   0  0  0  0  0  0  0  0  0  0  0  0
    6.9545   -3.5684  -10.0659 C   0  0  0  0  0  0  0  0  0  0  0  0
    6.7410   -2.3766   -9.1941 C   0  0  0  0  0  0  0  0  0  0  0  0
    6.3164   -2.7499   -7.8046 C   0  0  0  0  0  0  0  0  0  0  0  0
    6.1192   -1.4564   -6.9751 C   0  0  0  0  0  0  0  0  0  0  0  0
    5.6977   -1.8684   -5.6012 C   0  0  0  0  0  0  0  0  0  0  0  0
    5.4669   -0.7536   -4.6805 C   0  0  0  0  0  0  0  0  0  0  0  0
    5.0497   -0.9077   -3.2885 C   0  0  0  0  0  0  0  0  0  0  0  0
    4.8262    0.2343   -2.3894 C   0  0  0  0  0  0  0  0  0  0  0  0
    6.0364    0.9952   -2.2932 O   0  0  0  0  0  0  0  0  0  0  0  0
    5.9529    2.0864   -1.4940 C   0  0  0  0  0  0  0  0  0  0  0  0
    4.9604    2.4442   -0.8752 O   0  0  0  0  0  0  0  0  0  0  0  0
    7.2258    2.8324   -1.4427 C   0  0  0  0  0  0  0  0  0  0  0  0
    8.3328    2.4853   -2.1177 C   0  0  0  0  0  0  0  0  0  0  0  0
    9.5978    3.2304   -2.0524 C   0  0  0  0  0  0  0  0  0  0  0  0
    9.6569    4.6137   -1.9550 C   0  0  0  0  0  0  0  0  0  0  0  0
   10.8990    5.2654   -1.9292 C   0  0  0  0  0  0  0  0  0  0  0  0
   12.1503    4.6098   -2.0068 C   0  0  0  0  0  0  0  0  0  0  0  0
   13.2188    5.3122   -1.9733 O   0  0  0  0  0  0  0  0  0  0  0  0
   12.0543    3.1950   -2.1221 C   0  0  0  0  0  0  0  0  0  0  0  0
   13.0794    2.2727   -2.2240 O   0  0  0  0  0  0  0  0  0  0  0  0
   14.4122    2.7571   -2.1897 C   0  0  0  0  0  0  0  0  0  0  0  0
   10.8031    2.5361   -2.1493 C   0  0  0  0  0  0  0  0  0  0  0  0
   11.8065  -12.0709  -24.4173 H   0  0  0  0  0  0  0  0  0  0  0  0
   11.3709  -11.3782  -25.9851 H   0  0  0  0  0  0  0  0  0  0  0  0
   10.1077  -12.0078  -24.9195 H   0  0  0  0  0  0  0  0  0  0  0  0
   10.1921   -9.5163  -24.8797 H   0  0  0  0  0  0  0  0  0  0  0  0
   11.8841   -9.5791  -24.3795 H   0  0  0  0  0  0  0  0  0  0  0  0
   11.2242  -10.8302  -22.3063 H   0  0  0  0  0  0  0  0  0  0  0  0
    9.5333  -10.7675  -22.8062 H   0  0  0  0  0  0  0  0  0  0  0  0
    9.6092   -8.2692  -22.7577 H   0  0  0  0  0  0  0  0  0  0  0  0
   11.3046   -8.3321  -22.2565 H   0  0  0  0  0  0  0  0  0  0  0  0
    8.9611   -9.6039  -20.7274 H   0  0  0  0  0  0  0  0  0  0  0  0
   10.6535   -9.6667  -20.2270 H   0  0  0  0  0  0  0  0  0  0  0  0
   10.7141   -7.1748  -20.1226 H   0  0  0  0  0  0  0  0  0  0  0  0
    9.0235   -7.1121  -20.6224 H   0  0  0  0  0  0  0  0  0  0  0  0
    8.3764   -8.4358  -18.5949 H   0  0  0  0  0  0  0  0  0  0  0  0
   10.0644   -8.4984  -18.0958 H   0  0  0  0  0  0  0  0  0  0  0  0
   10.1237   -6.0204  -18.0008 H   0  0  0  0  0  0  0  0  0  0  0  0
    8.4440   -5.9581  -18.4974 H   0  0  0  0  0  0  0  0  0  0  0  0
    9.4759   -7.2552  -15.9590 H   0  0  0  0  0  0  0  0  0  0  0  0
    7.7933   -7.1928  -16.4564 H   0  0  0  0  0  0  0  0  0  0  0  0
    9.5462   -4.7633  -15.8609 H   0  0  0  0  0  0  0  0  0  0  0  0
    7.8509   -4.7004  -16.3621 H   0  0  0  0  0  0  0  0  0  0  0  0
    8.9092   -6.1877  -13.8977 H   0  0  0  0  0  0  0  0  0  0  0  0
    7.2209   -6.1251  -14.3968 H   0  0  0  0  0  0  0  0  0  0  0  0
    8.9250   -3.7152  -13.6489 H   0  0  0  0  0  0  0  0  0  0  0  0
    7.2410   -3.6527  -14.1467 H   0  0  0  0  0  0  0  0  0  0  0  0
    6.6129   -5.0688  -12.2094 H   0  0  0  0  0  0  0  0  0  0  0  0
    8.3022   -5.1315  -11.7101 H   0  0  0  0  0  0  0  0  0  0  0  0
    6.6230   -2.5661  -11.9505 H   0  0  0  0  0  0  0  0  0  0  0  0
    8.3237   -2.6292  -11.4477 H   0  0  0  0  0  0  0  0  0  0  0  0
    7.7134   -4.2180   -9.6101 H   0  0  0  0  0  0  0  0  0  0  0  0
    6.0276   -4.1555  -10.1085 H   0  0  0  0  0  0  0  0  0  0  0  0
    5.9825   -1.7251   -9.6470 H   0  0  0  0  0  0  0  0  0  0  0  0
    7.6662   -1.7875   -9.1493 H   0  0  0  0  0  0  0  0  0  0  0  0
    5.3804   -3.3210   -7.8334 H   0  0  0  0  0  0  0  0  0  0  0  0
    7.0765   -3.3839   -7.3320 H   0  0  0  0  0  0  0  0  0  0  0  0
    7.0549   -0.8861   -6.9415 H   0  0  0  0  0  0  0  0  0  0  0  0
    5.3566   -0.8230   -7.4434 H   0  0  0  0  0  0  0  0  0  0  0  0
    6.4585   -2.5318   -5.1689 H   0  0  0  0  0  0  0  0  0  0  0  0
    4.7811   -2.4696   -5.6647 H   0  0  0  0  0  0  0  0  0  0  0  0
    6.3886   -0.1530   -4.6712 H   0  0  0  0  0  0  0  0  0  0  0  0
    4.7275   -0.0908   -5.1545 H   0  0  0  0  0  0  0  0  0  0  0  0
    5.8013   -1.5508   -2.8075 H   0  0  0  0  0  0  0  0  0  0  0  0
    4.1287   -1.5072   -3.2837 H   0  0  0  0  0  0  0  0  0  0  0  0
    4.5402   -0.1162   -1.3905 H   0  0  0  0  0  0  0  0  0  0  0  0
    4.0276    0.8758   -2.7807 H   0  0  0  0  0  0  0  0  0  0  0  0
    7.2034    3.6998   -0.7925 H   0  0  0  0  0  0  0  0  0  0  0  0
    8.3527    1.5990   -2.7468 H   0  0  0  0  0  0  0  0  0  0  0  0
    8.7597    5.2210   -1.9097 H   0  0  0  0  0  0  0  0  0  0  0  0
   10.9020    6.3537   -1.8492 H   0  0  0  0  0  0  0  0  0  0  0  0
   14.6452    3.2368   -1.2340 H   0  0  0  0  0  0  0  0  0  0  0  0
   15.0722    1.8863   -2.2675 H   0  0  0  0  0  0  0  0  0  0  0  0
   14.6347    3.3911   -3.0535 H   0  0  0  0  0  0  0  0  0  0  0  0
   10.8028    1.4532   -2.2407 H   0  0  0  0  0  0  0  0  0  0  0  0
  1  2  1  0
  2  3  1  0
  3  4  1  0
  4  5  1  0
  5  6  1  0
  6  7  1  0
  7  8  1  0
  8  9  1  0
  9 10  1  0
 10 11  1  0
 11 12  1  0
 12 13  1  0
 13 14  1  0
 14 15  1  0
 15 16  1  0
 16 17  1  0
 17 18  1  0
 18 19  1  0
 19 20  1  0
 20 21  1  0
 21 22  1  0
 22 23  1  0
 23 24  1  0
 24 25  2  0
 24 26  1  0
 26 27  2  0
 27 28  1  0
 28 29  2  0
 29 30  1  0
 30 31  2  0
 31 32  1  0
 31 33  1  0
 33 34  1  0
 34 35  1  0
 33 36  2  0
 36 28  1  0
  1 37  1  0
  1 38  1  0
  1 39  1  0
  2 40  1  0
  2 41  1  0
  3 42  1  0
  3 43  1  0
  4 44  1  0
  4 45  1  0
  5 46  1  0
  5 47  1  0
  6 48  1  0
  6 49  1  0
  7 50  1  0
  7 51  1  0
  8 52  1  0
  8 53  1  0
  9 54  1  0
  9 55  1  0
 10 56  1  0
 10 57  1  0
 11 58  1  0
 11 59  1  0
 12 60  1  0
 12 61  1  0
 13 62  1  0
 13 63  1  0
 14 64  1  0
 14 65  1  0
 15 66  1  0
 15 67  1  0
 16 68  1  0
 16 69  1  0
 17 70  1  0
 17 71  1  0
 18 72  1  0
 18 73  1  0
 19 74  1  0
 19 75  1  0
 20 76  1  0
 20 77  1  0
 21 78  1  0
 21 79  1  0
 22 80  1  0
 22 81  1  0
 26 82  1  0
 27 83  1  0
 29 84  1  0
 30 85  1  0
 35 86  1  0
 35 87  1  0
 35 88  1  0
 36 89  1  0
M  CHG  1  32  -1
M  END
$$$$
