
     RDKit          3D

 89 89  0  0  0  0  0  0  0  0999 V2000
   12.8636   -7.4817  -26.0550 C   0  0  0  0  0  0  0  0  0  0  0  0
   11.9372   -7.8745  -24.9441 C   0  0  0  0  0  0  0  0  0  0  0  0
   12.0156   -6.8595  -23.7998 C   0  0  0  0  0  0  0  0  0  0  0  0
   11.0884   -7.2419  -22.6742 C   0  0  0  0  0  0  0  0  0  0  0  0
   11.2118   -6.1922  -21.5642 C   0  0  0  0  0  0  0  0  0  0  0  0
   10.2983   -6.5392  -20.4178 C   0  0  0  0  0  0  0  0  0  0  0  0
   10.4068   -5.5017  -19.2974 C   0  0  0  0  0  0  0  0  0  0  0  0
    9.5053   -5.8320  -18.1508 C   0  0  0  0  0  0  0  0  0  0  0  0
    9.5561   -4.8584  -17.0109 C   0  0  0  0  0  0  0  0  0  0  0  0
    8.6440   -5.2076  -15.8696 C   0  0  0  0  0  0  0  0  0  0  0  0
    8.8102   -4.1352  -14.8052 C   0  0  0  0  0  0  0  0  0  0  0  0
    7.9344   -4.3888  -13.6063 C   0  0  0  0  0  0  0  0  0  0  0  0
    8.0852   -3.3416  -12.5470 C   0  0  0  0  0  0  0  0  0  0  0  0
    7.1852   -3.6246  -11.3434 C   0  0  0  0  0  0  0  0  0  0  0  0
    7.4382   -2.5010  -10.3649 C   0  0  0  0  0  0  0  0  0  0  0  0
    6.6240   -2.6348   -9.1218 C   0  0  0  0  0  0  0  0  0  0  0  0
    6.8735   -1.5206   -8.1489 C   0  0  0  0  0  0  0  0  0  0  0  0
    5.9902   -1.7411   -6.8954 C   0  0  0  0  0  0  0  0  0  0  0  0
    6.2660   -0.6143   -5.9525 C   0  0  0  0  0  0  0  0  0  0  0  0
    5.5041   -0.6716   -4.7035 C   0  0  0  0  0  0  0  0  0  0  0  0
    5.6043    0.3163   -3.6313 C   0  0  0  0  0  0  0  0  0  0  0  0
    4.8238    0.2291   -2.3879 C   0  0  0  0  0  0  0  0  0  0  0  0
    5.0166   -1.0404   -1.7468 O   0  0  0  0  0  0  0  0  0  0  0  0
    6.0713   -1.1252   -0.8998 C   0  0  0  0  0  0  0  0  0  0  0  0
    6.8513   -0.2222   -0.6320 O   0  0  0  0  0  0  0  0  0  0  0  0
    6.1959   -2.4722   -0.3082 C   0  0  0  0  0  0  0  0  0  0  0  0
    5.3784   -3.4996   -0.5869 C   0  0  0  0  0  0  0  0  0  0  0  0
    5.5224   -4.8402   -0.0023 C   0  0  0  0  0  0  0  0  0  0  0  0
    5.9291   -5.0544    1.3074 C   0  0  0  0  0  0  0  0  0  0  0  0
    6.0153   -6.3601    1.8131 C   0  0  0  0  0  0  0  0  0  0  0  0
    5.7017   -7.5273    1.0776 C   0  0  0  0  0  0  0  0  0  0  0  0
    5.8188   -8.6665    1.6473 O   0  0  0  0  0  0  0  0  0  0  0  0
    5.2733   -7.2720   -0.2549 C   0  0  0  0  0  0  0  0  0  0  0  0
    4.8914   -8.1844   -1.2211 O   0  0  0  0  0  0  0  0  0  0  0  0
    4.9451   -9.5625   -0.8891 C   0  0  0  0  0  0  0  0  0  0  0  0
    5.1845   -5.9564   -0.7664 C   0  0  0  0  0  0  0  0  0  0  0  0
   12.6040   -6.4990  -26.4622 H   0  0  0  0  0  0  0  0  0  0  0  0
   12.8079   -8.2070  -26.8732 H   0  0  0  0  0  0  0  0  0  0  0  0
   13.9031   -7.4440  -25.7130 H   0  0  0  0  0  0  0  0  0  0  0  0
   12.2043   -8.8725  -24.5774 H   0  0  0  0  0  0  0  0  0  0  0  0
   10.9104   -7.9313  -25.3236 H   0  0  0  0  0  0  0  0  0  0  0  0
   11.7555   -5.8635  -24.1796 H   0  0  0  0  0  0  0  0  0  0  0  0
   13.0486   -6.8041  -23.4338 H   0  0  0  0  0  0  0  0  0  0  0  0
   11.3496   -8.2329  -22.2843 H   0  0  0  0  0  0  0  0  0  0  0  0
   10.0530   -7.2897  -23.0320 H   0  0  0  0  0  0  0  0  0  0  0  0
   12.2502   -6.1432  -21.2138 H   0  0  0  0  0  0  0  0  0  0  0  0
   10.9559   -5.2017  -21.9602 H   0  0  0  0  0  0  0  0  0  0  0  0
    9.2600   -6.5902  -20.7685 H   0  0  0  0  0  0  0  0  0  0  0  0
   10.5528   -7.5306  -20.0230 H   0  0  0  0  0  0  0  0  0  0  0  0
   11.4461   -5.4493  -18.9498 H   0  0  0  0  0  0  0  0  0  0  0  0
   10.1552   -4.5103  -19.6942 H   0  0  0  0  0  0  0  0  0  0  0  0
    8.4713   -5.8978  -18.5142 H   0  0  0  0  0  0  0  0  0  0  0  0
    9.7558   -6.8322  -17.7734 H   0  0  0  0  0  0  0  0  0  0  0  0
    9.3039   -3.8592  -17.3900 H   0  0  0  0  0  0  0  0  0  0  0  0
   10.5906   -4.7951  -16.6480 H   0  0  0  0  0  0  0  0  0  0  0  0
    7.6023   -5.2492  -16.2084 H   0  0  0  0  0  0  0  0  0  0  0  0
    8.8987   -6.1923  -15.4607 H   0  0  0  0  0  0  0  0  0  0  0  0
    8.5681   -3.1522  -15.2294 H   0  0  0  0  0  0  0  0  0  0  0  0
    9.8592   -4.0913  -14.4848 H   0  0  0  0  0  0  0  0  0  0  0  0
    6.8858   -4.4366  -13.9272 H   0  0  0  0  0  0  0  0  0  0  0  0
    8.1736   -5.3734  -13.1845 H   0  0  0  0  0  0  0  0  0  0  0  0
    9.1332   -3.2977  -12.2236 H   0  0  0  0  0  0  0  0  0  0  0  0
    7.8413   -2.3580  -12.9686 H   0  0  0  0  0  0  0  0  0  0  0  0
    7.4331   -4.5944  -10.8974 H   0  0  0  0  0  0  0  0  0  0  0  0
    6.1326   -3.6484  -11.6474 H   0  0  0  0  0  0  0  0  0  0  0  0
    7.2138   -1.5377  -10.8416 H   0  0  0  0  0  0  0  0  0  0  0  0
    8.5030   -2.4755  -10.0981 H   0  0  0  0  0  0  0  0  0  0  0  0
    6.8462   -3.5971   -8.6425 H   0  0  0  0  0  0  0  0  0  0  0  0
    5.5586   -2.6605   -9.3851 H   0  0  0  0  0  0  0  0  0  0  0  0
    7.9314   -1.4972   -7.8604 H   0  0  0  0  0  0  0  0  0  0  0  0
    6.6344   -0.5537   -8.6084 H   0  0  0  0  0  0  0  0  0  0  0  0
    4.9318   -1.7605   -7.1809 H   0  0  0  0  0  0  0  0  0  0  0  0
    6.2306   -2.7052   -6.4320 H   0  0  0  0  0  0  0  0  0  0  0  0
    6.0544    0.3406   -6.4516 H   0  0  0  0  0  0  0  0  0  0  0  0
    7.3372   -0.5926   -5.7120 H   0  0  0  0  0  0  0  0  0  0  0  0
    4.4395   -0.7270   -4.9762 H   0  0  0  0  0  0  0  0  0  0  0  0
    5.7100   -1.6531   -4.2510 H   0  0  0  0  0  0  0  0  0  0  0  0
    5.4003    1.3031   -4.0697 H   0  0  0  0  0  0  0  0  0  0  0  0
    6.6655    0.3600   -3.3477 H   0  0  0  0  0  0  0  0  0  0  0  0
    3.7531    0.3027   -2.6086 H   0  0  0  0  0  0  0  0  0  0  0  0
    5.0507    1.0524   -1.6996 H   0  0  0  0  0  0  0  0  0  0  0  0
    7.0314   -2.5787    0.3748 H   0  0  0  0  0  0  0  0  0  0  0  0
    4.5616   -3.3918   -1.2959 H   0  0  0  0  0  0  0  0  0  0  0  0
    6.1754   -4.2319    1.9696 H   0  0  0  0  0  0  0  0  0  0  0  0
    6.3415   -6.4857    2.8469 H   0  0  0  0  0  0  0  0  0  0  0  0
    5.9671   -9.8880   -0.6715 H   0  0  0  0  0  0  0  0  0  0  0  0
    4.2361   -9.8153   -0.0948 H   0  0  0  0  0  0  0  0  0  0  0  0
    4.6259  -10.1191   -1.7769 H   0  0  0  0  0  0  0  0  0  0  0  0
    4.8485   -5.8334   -1.7925 H   0  0  0  0  0  0  0  0  0  0  0  0
  1  2  1  0
  2  3  1  0
  3  4  1  0
  4  5  1  0
  5  6  1  0
  6  7  1  0
  7  8  1  0
  8  9  1  0
  9 10  1  0
 10 11  1  0
 11 12  1  0
 12 13  1  0
 13 14  1  0
 14 15  1  0
 15 16  1  0
 16 17  1  0
 17 18  1  0
 18 19  1  0
 19 20  1  0
 20 21  1  0
 21 22  1  0
 22 23  1  0
 23 24  1  0
 24 25  2  0
 24 26  1  0
 26 27  2  0
 27 28  1  0
 28 29  2  0
 29 30  1  0
 30 31  2  0
 31 32  1  0
 31 33  1  0
 33 34  1  0
 34 35  1  0
 33 36  2  0
 36 28  1  0
  1 37  1  0
  1 38  1  0
  1 39  1  0
  2 40  1  0
  2 41  1  0
  3 42  1  0
  3 43  1  0
  4 44  1  0
  4 45  1  0
  5 46  1  0
  5 47  1  0
  6 48  1  0
  6 49  1  0
  7 50  1  0
  7 51  1  0
  8 52  1  0
  8 53  1  0
  9 54  1  0
  9 55  1  0
 10 56  1  0
 10 57  1  0
 11 58  1  0
 11 59  1  0
 12 60  1  0
 12 61  1  0
 13 62  1  0
 13 63  1  0
 14 64  1  0
 14 65  1  0
 15 66  1  0
 15 67  1  0
 16 68  1  0
 16 69  1  0
 17 70  1  0
 17 71  1  0
 18 72  1  0
 18 73  1  0
 19 74  1  0
 19 75  1  0
 20 76  1  0
 20 77  1  0
 21 78  1  0
 21 79  1  0
 22 80  1  0
 22 81  1  0
 26 82  1  0
 27 83  1  0
 29 84  1  0
 30 85  1  0
 35 86  1  0
 35 87  1  0
 35 88  1  0
 36 89  1  0
M  CHG  1  32  -1
M  END
$$$$
