
     RDKit          3D

 89 89  0  0  0  0  0  0  0  0999 V2000
    9.5195   19.6820  -20.0613 C   0  0  0  0  0  0  0  0  0  0  0  0
    9.2436   18.2254  -19.8407 C   0  0  0  0  0  0  0  0  0  0  0  0
    8.9868   17.9498  -18.3562 C   0  0  0  0  0  0  0  0  0  0  0  0
    8.7075   16.4873  -18.1188 C   0  0  0  0  0  0  0  0  0  0  0  0
    8.4596   16.2761  -16.6212 C   0  0  0  0  0  0  0  0  0  0  0  0
    8.1761   14.8233  -16.3418 C   0  0  0  0  0  0  0  0  0  0  0  0
    7.9254   14.5911  -14.8496 C   0  0  0  0  0  0  0  0  0  0  0  0
    7.6421   13.1524  -14.5554 C   0  0  0  0  0  0  0  0  0  0  0  0
    7.3855   12.8455  -13.1097 C   0  0  0  0  0  0  0  0  0  0  0  0
    7.1031   11.3959  -12.8350 C   0  0  0  0  0  0  0  0  0  0  0  0
    6.8667   11.2502  -11.3405 C   0  0  0  0  0  0  0  0  0  0  0  0
    6.5722    9.8251  -10.9516 C   0  0  0  0  0  0  0  0  0  0  0  0
    6.3365    9.6627   -9.4821 C   0  0  0  0  0  0  0  0  0  0  0  0
    6.0403    8.2075   -9.1168 C   0  0  0  0  0  0  0  0  0  0  0  0
    5.8256    8.1923   -7.6209 C   0  0  0  0  0  0  0  0  0  0  0  0
    5.5228    6.8262   -7.1033 C   0  0  0  0  0  0  0  0  0  0  0  0
    5.3092    6.8086   -5.6185 C   0  0  0  0  0  0  0  0  0  0  0  0
    5.0022    5.3571   -5.1724 C   0  0  0  0  0  0  0  0  0  0  0  0
    4.7961    5.3805   -3.6919 C   0  0  0  0  0  0  0  0  0  0  0  0
    4.4935    4.0745   -3.1036 C   0  0  0  0  0  0  0  0  0  0  0  0
    4.2535    3.8477   -1.6801 C   0  0  0  0  0  0  0  0  0  0  0  0
    3.9513    2.5216   -1.1208 C   0  0  0  0  0  0  0  0  0  0  0  0
    5.0467    1.6185   -1.3360 O   0  0  0  0  0  0  0  0  0  0  0  0
    4.9099    0.7432   -2.3650 C   0  0  0  0  0  0  0  0  0  0  0  0
    3.9604    0.6590   -3.1260 O   0  0  0  0  0  0  0  0  0  0  0  0
    6.1275   -0.0883   -2.4116 C   0  0  0  0  0  0  0  0  0  0  0  0
    6.2652   -1.0365   -3.3499 C   0  0  0  0  0  0  0  0  0  0  0  0
    7.4414   -1.9106   -3.4501 C   0  0  0  0  0  0  0  0  0  0  0  0
    8.7332   -1.4657   -3.2036 C   0  0  0  0  0  0  0  0  0  0  0  0
    9.8182   -2.3451   -3.3343 C   0  0  0  0  0  0  0  0  0  0  0  0
    9.7083   -3.7010   -3.7219 C   0  0  0  0  0  0  0  0  0  0  0  0
   10.7706   -4.4096   -3.7973 O   0  0  0  0  0  0  0  0  0  0  0  0
    8.3743   -4.1183   -3.9901 C   0  0  0  0  0  0  0  0  0  0  0  0
    7.9328   -5.3649   -4.3939 O   0  0  0  0  0  0  0  0  0  0  0  0
    8.9074   -6.3671   -4.6341 C   0  0  0  0  0  0  0  0  0  0  0  0
    7.2785   -3.2336   -3.8572 C   0  0  0  0  0  0  0  0  0  0  0  0
    8.6716   20.3004  -19.7489 H   0  0  0  0  0  0  0  0  0  0  0  0
    9.7032   19.8796  -21.1224 H   0  0  0  0  0  0  0  0  0  0  0  0
   10.4029   20.0097  -19.5033 H   0  0  0  0  0  0  0  0  0  0  0  0
   10.0972   17.6321  -20.1888 H   0  0  0  0  0  0  0  0  0  0  0  0
    8.3729   17.9217  -20.4334 H   0  0  0  0  0  0  0  0  0  0  0  0
    8.1369   18.5549  -18.0163 H   0  0  0  0  0  0  0  0  0  0  0  0
    9.8602   18.2656  -17.7719 H   0  0  0  0  0  0  0  0  0  0  0  0
    9.5576   15.8780  -18.4481 H   0  0  0  0  0  0  0  0  0  0  0  0
    7.8297   16.1681  -18.6932 H   0  0  0  0  0  0  0  0  0  0  0  0
    9.3376   16.6027  -16.0501 H   0  0  0  0  0  0  0  0  0  0  0  0
    7.6127   16.8923  -16.2948 H   0  0  0  0  0  0  0  0  0  0  0  0
    7.2993   14.4961  -16.9143 H   0  0  0  0  0  0  0  0  0  0  0  0
    9.0221   14.2068  -16.6700 H   0  0  0  0  0  0  0  0  0  0  0  0
    8.8015   14.9216  -14.2779 H   0  0  0  0  0  0  0  0  0  0  0  0
    7.0812   15.2105  -14.5219 H   0  0  0  0  0  0  0  0  0  0  0  0
    6.7742   12.8293  -15.1453 H   0  0  0  0  0  0  0  0  0  0  0  0
    8.4861   12.5418  -14.9025 H   0  0  0  0  0  0  0  0  0  0  0  0
    6.5403   13.4559  -12.7650 H   0  0  0  0  0  0  0  0  0  0  0  0
    8.2550   13.1680  -12.5218 H   0  0  0  0  0  0  0  0  0  0  0  0
    6.2209   11.0630  -13.3941 H   0  0  0  0  0  0  0  0  0  0  0  0
    7.9486   10.7728  -13.1490 H   0  0  0  0  0  0  0  0  0  0  0  0
    6.0288   11.8898  -11.0343 H   0  0  0  0  0  0  0  0  0  0  0  0
    7.7493   11.6009  -10.7903 H   0  0  0  0  0  0  0  0  0  0  0  0
    5.6920    9.4730  -11.5047 H   0  0  0  0  0  0  0  0  0  0  0  0
    7.4081    9.1848  -11.2613 H   0  0  0  0  0  0  0  0  0  0  0  0
    7.2190   10.0108   -8.9300 H   0  0  0  0  0  0  0  0  0  0  0  0
    5.4975   10.2999   -9.1742 H   0  0  0  0  0  0  0  0  0  0  0  0
    6.8802    7.5619   -9.3975 H   0  0  0  0  0  0  0  0  0  0  0  0
    5.1470    7.8529   -9.6434 H   0  0  0  0  0  0  0  0  0  0  0  0
    5.0015    8.8688   -7.3585 H   0  0  0  0  0  0  0  0  0  0  0  0
    6.7195    8.5803   -7.1149 H   0  0  0  0  0  0  0  0  0  0  0  0
    6.3451    6.1473   -7.3638 H   0  0  0  0  0  0  0  0  0  0  0  0
    4.6292    6.4354   -7.6072 H   0  0  0  0  0  0  0  0  0  0  0  0
    6.2036    7.1766   -5.1012 H   0  0  0  0  0  0  0  0  0  0  0  0
    4.4752    7.4669   -5.3464 H   0  0  0  0  0  0  0  0  0  0  0  0
    4.1059    4.9886   -5.6852 H   0  0  0  0  0  0  0  0  0  0  0  0
    5.8366    4.6981   -5.4397 H   0  0  0  0  0  0  0  0  0  0  0  0
    3.9817    6.0752   -3.4471 H   0  0  0  0  0  0  0  0  0  0  0  0
    5.6912    5.7889   -3.2044 H   0  0  0  0  0  0  0  0  0  0  0  0
    3.6169    3.6747   -3.6349 H   0  0  0  0  0  0  0  0  0  0  0  0
    5.3116    3.4021   -3.3996 H   0  0  0  0  0  0  0  0  0  0  0  0
    3.4406    4.5200   -1.3720 H   0  0  0  0  0  0  0  0  0  0  0  0
    5.1406    4.2243   -1.1502 H   0  0  0  0  0  0  0  0  0  0  0  0
    3.0110    2.1208   -1.5172 H   0  0  0  0  0  0  0  0  0  0  0  0
    3.8178    2.5914   -0.0352 H   0  0  0  0  0  0  0  0  0  0  0  0
    6.8817    0.0938   -1.6562 H   0  0  0  0  0  0  0  0  0  0  0  0
    5.4776   -1.2170   -4.0785 H   0  0  0  0  0  0  0  0  0  0  0  0
    8.9372   -0.4401   -2.9173 H   0  0  0  0  0  0  0  0  0  0  0  0
   10.8167   -1.9576   -3.1257 H   0  0  0  0  0  0  0  0  0  0  0  0
    9.5891   -6.0858   -5.4428 H   0  0  0  0  0  0  0  0  0  0  0  0
    9.4275   -6.6533   -3.7149 H   0  0  0  0  0  0  0  0  0  0  0  0
    8.3724   -7.2594   -4.9770 H   0  0  0  0  0  0  0  0  0  0  0  0
    6.2857   -3.6185   -4.0749 H   0  0  0  0  0  0  0  0  0  0  0  0
  1  2  1  0
  2  3  1  0
  3  4  1  0
  4  5  1  0
  5  6  1  0
  6  7  1  0
  7  8  1  0
  8  9  1  0
  9 10  1  0
 10 11  1  0
 11 12  1  0
 12 13  1  0
 13 14  1  0
 14 15  1  0
 15 16  1  0
 16 17  1  0
 17 18  1  0
 18 19  1  0
 19 20  1  0
 20 21  1  0
 21 22  1  0
 22 23  1  0
 23 24  1  0
 24 25  2  0
 24 26  1  0
 26 27  2  0
 27 28  1  0
 28 29  2  0
 29 30  1  0
 30 31  2  0
 31 32  1  0
 31 33  1  0
 33 34  1  0
 34 35  1  0
 33 36  2  0
 36 28  1  0
  1 37  1  0
  1 38  1  0
  1 39  1  0
  2 40  1  0
  2 41  1  0
  3 42  1  0
  3 43  1  0
  4 44  1  0
  4 45  1  0
  5 46  1  0
  5 47  1  0
  6 48  1  0
  6 49  1  0
  7 50  1  0
  7 51  1  0
  8 52  1  0
  8 53  1  0
  9 54  1  0
  9 55  1  0
 10 56  1  0
 10 57  1  0
 11 58  1  0
 11 59  1  0
 12 60  1  0
 12 61  1  0
 13 62  1  0
 13 63  1  0
 14 64  1  0
 14 65  1  0
 15 66  1  0
 15 67  1  0
 16 68  1  0
 16 69  1  0
 17 70  1  0
 17 71  1  0
 18 72  1  0
 18 73  1  0
 19 74  1  0
 19 75  1  0
 20 76  1  0
 20 77  1  0
 21 78  1  0
 21 79  1  0
 22 80  1  0
 22 81  1  0
 26 82  1  0
 27 83  1  0
 29 84  1  0
 30 85  1  0
 35 86  1  0
 35 87  1  0
 35 88  1  0
 36 89  1  0
M  CHG  1  32  -1
M  END
$$$$
