
     RDKit          3D

 89 89  0  0  0  0  0  0  0  0999 V2000
    8.2102   28.3263   -0.5966 C   0  0  0  0  0  0  0  0  0  0  0  0
    7.8886   27.1711    0.3026 C   0  0  0  0  0  0  0  0  0  0  0  0
    7.7862   25.8760   -0.5086 C   0  0  0  0  0  0  0  0  0  0  0  0
    7.4630   24.7042    0.3834 C   0  0  0  0  0  0  0  0  0  0  0  0
    7.3741   23.4431   -0.4831 C   0  0  0  0  0  0  0  0  0  0  0  0
    7.0517   22.2466    0.3734 C   0  0  0  0  0  0  0  0  0  0  0  0
    6.9584   20.9752   -0.4742 C   0  0  0  0  0  0  0  0  0  0  0  0
    6.6386   19.7772    0.3620 C   0  0  0  0  0  0  0  0  0  0  0  0
    6.5306   18.4898   -0.4002 C   0  0  0  0  0  0  0  0  0  0  0  0
    6.2090   17.2989    0.4571 C   0  0  0  0  0  0  0  0  0  0  0  0
    6.1344   16.0847   -0.4543 C   0  0  0  0  0  0  0  0  0  0  0  0
    5.8148   14.8254    0.3076 C   0  0  0  0  0  0  0  0  0  0  0  0
    5.7373   13.6184   -0.5748 C   0  0  0  0  0  0  0  0  0  0  0  0
    5.4119   12.3562    0.2248 C   0  0  0  0  0  0  0  0  0  0  0  0
    5.3655   11.2297   -0.7816 C   0  0  0  0  0  0  0  0  0  0  0  0
    5.0550    9.9144   -0.1496 C   0  0  0  0  0  0  0  0  0  0  0  0
    5.0084    8.7945   -1.1467 C   0  0  0  0  0  0  0  0  0  0  0  0
    4.6815    7.4745   -0.4046 C   0  0  0  0  0  0  0  0  0  0  0  0
    4.6439    6.3857   -1.4284 C   0  0  0  0  0  0  0  0  0  0  0  0
    4.3443    5.0584   -0.8877 C   0  0  0  0  0  0  0  0  0  0  0  0
    4.2543    3.8422   -1.6928 C   0  0  0  0  0  0  0  0  0  0  0  0
    3.9512    2.5230   -1.1177 C   0  0  0  0  0  0  0  0  0  0  0  0
    4.8629    2.1982   -0.0574 O   0  0  0  0  0  0  0  0  0  0  0  0
    6.0180    1.5945   -0.4389 C   0  0  0  0  0  0  0  0  0  0  0  0
    6.3445    1.3105   -1.5794 O   0  0  0  0  0  0  0  0  0  0  0  0
    6.8193    1.3487    0.7749 C   0  0  0  0  0  0  0  0  0  0  0  0
    8.0231    0.7644    0.6855 C   0  0  0  0  0  0  0  0  0  0  0  0
    8.8705    0.4756    1.8501 C   0  0  0  0  0  0  0  0  0  0  0  0
    8.9713    1.3314    2.9386 C   0  0  0  0  0  0  0  0  0  0  0  0
    9.8130    1.0084    4.0132 C   0  0  0  0  0  0  0  0  0  0  0  0
   10.6104   -0.1578    4.0839 C   0  0  0  0  0  0  0  0  0  0  0  0
   11.3328   -0.3498    5.1220 O   0  0  0  0  0  0  0  0  0  0  0  0
   10.5021   -1.0011    2.9425 C   0  0  0  0  0  0  0  0  0  0  0  0
   11.1496   -2.1982    2.6988 O   0  0  0  0  0  0  0  0  0  0  0  0
   12.0889   -2.6510    3.6605 C   0  0  0  0  0  0  0  0  0  0  0  0
    9.6525   -0.6781    1.8585 C   0  0  0  0  0  0  0  0  0  0  0  0
    9.1656   28.1780   -1.1106 H   0  0  0  0  0  0  0  0  0  0  0  0
    8.2835   29.2524   -0.0173 H   0  0  0  0  0  0  0  0  0  0  0  0
    7.4344   28.4687   -1.3561 H   0  0  0  0  0  0  0  0  0  0  0  0
    6.9430   27.3618    0.8232 H   0  0  0  0  0  0  0  0  0  0  0  0
    8.6673   27.0722    1.0678 H   0  0  0  0  0  0  0  0  0  0  0  0
    8.7342   25.6997   -1.0323 H   0  0  0  0  0  0  0  0  0  0  0  0
    7.0109   25.9890   -1.2768 H   0  0  0  0  0  0  0  0  0  0  0  0
    6.5116   24.8707    0.9026 H   0  0  0  0  0  0  0  0  0  0  0  0
    8.2394   24.5805    1.1476 H   0  0  0  0  0  0  0  0  0  0  0  0
    6.6007   23.5737   -1.2501 H   0  0  0  0  0  0  0  0  0  0  0  0
    8.3255   23.2841   -1.0054 H   0  0  0  0  0  0  0  0  0  0  0  0
    7.8240   22.1170    1.1418 H   0  0  0  0  0  0  0  0  0  0  0  0
    6.1011   22.4063    0.8974 H   0  0  0  0  0  0  0  0  0  0  0  0
    6.1881   21.1072   -1.2442 H   0  0  0  0  0  0  0  0  0  0  0  0
    7.9084   20.8183   -1.0002 H   0  0  0  0  0  0  0  0  0  0  0  0
    7.4070   19.6656    1.1383 H   0  0  0  0  0  0  0  0  0  0  0  0
    5.6952   19.9530    0.8955 H   0  0  0  0  0  0  0  0  0  0  0  0
    7.4754   18.3152   -0.9318 H   0  0  0  0  0  0  0  0  0  0  0  0
    5.7607   18.6031   -1.1750 H   0  0  0  0  0  0  0  0  0  0  0  0
    6.9820   17.1545    1.2208 H   0  0  0  0  0  0  0  0  0  0  0  0
    5.2543   17.4447    0.9758 H   0  0  0  0  0  0  0  0  0  0  0  0
    7.0894   15.9575   -0.9802 H   0  0  0  0  0  0  0  0  0  0  0  0
    5.3689   16.2465   -1.2243 H   0  0  0  0  0  0  0  0  0  0  0  0
    6.5780   14.6657    1.0801 H   0  0  0  0  0  0  0  0  0  0  0  0
    4.8618   14.9538    0.8367 H   0  0  0  0  0  0  0  0  0  0  0  0
    4.9708   13.7773   -1.3442 H   0  0  0  0  0  0  0  0  0  0  0  0
    6.6923   13.4882   -1.1001 H   0  0  0  0  0  0  0  0  0  0  0  0
    4.4488   12.4628    0.7367 H   0  0  0  0  0  0  0  0  0  0  0  0
    6.1819   12.1717    0.9825 H   0  0  0  0  0  0  0  0  0  0  0  0
    6.3286   11.1608   -1.3044 H   0  0  0  0  0  0  0  0  0  0  0  0
    4.6106   11.4492   -1.5481 H   0  0  0  0  0  0  0  0  0  0  0  0
    4.0924    9.9798    0.3739 H   0  0  0  0  0  0  0  0  0  0  0  0
    5.8082    9.6917    0.6173 H   0  0  0  0  0  0  0  0  0  0  0  0
    4.2438    8.9942   -1.9074 H   0  0  0  0  0  0  0  0  0  0  0  0
    5.9723    8.7039   -1.6622 H   0  0  0  0  0  0  0  0  0  0  0  0
    5.4470    7.2709    0.3534 H   0  0  0  0  0  0  0  0  0  0  0  0
    3.7162    7.5614    0.1080 H   0  0  0  0  0  0  0  0  0  0  0  0
    5.6074    6.3440   -1.9534 H   0  0  0  0  0  0  0  0  0  0  0  0
    3.8979    6.6310   -2.1959 H   0  0  0  0  0  0  0  0  0  0  0  0
    5.0857    4.8625   -0.0989 H   0  0  0  0  0  0  0  0  0  0  0  0
    3.3936    5.1393   -0.3398 H   0  0  0  0  0  0  0  0  0  0  0  0
    5.2099    3.7531   -2.2287 H   0  0  0  0  0  0  0  0  0  0  0  0
    3.5153    4.0238   -2.4857 H   0  0  0  0  0  0  0  0  0  0  0  0
    3.9422    1.7334   -1.8791 H   0  0  0  0  0  0  0  0  0  0  0  0
    2.9503    2.5270   -0.6718 H   0  0  0  0  0  0  0  0  0  0  0  0
    6.3875    1.6452    1.7226 H   0  0  0  0  0  0  0  0  0  0  0  0
    8.4189    0.4500   -0.2779 H   0  0  0  0  0  0  0  0  0  0  0  0
    8.4187    2.2632    2.9834 H   0  0  0  0  0  0  0  0  0  0  0  0
    9.8593    1.7048    4.8520 H   0  0  0  0  0  0  0  0  0  0  0  0
   12.9233   -1.9520    3.7744 H   0  0  0  0  0  0  0  0  0  0  0  0
   11.6061   -2.9010    4.6101 H   0  0  0  0  0  0  0  0  0  0  0  0
   12.5169   -3.5835    3.2767 H   0  0  0  0  0  0  0  0  0  0  0  0
    9.6151   -1.3678    1.0194 H   0  0  0  0  0  0  0  0  0  0  0  0
  1  2  1  0
  2  3  1  0
  3  4  1  0
  4  5  1  0
  5  6  1  0
  6  7  1  0
  7  8  1  0
  8  9  1  0
  9 10  1  0
 10 11  1  0
 11 12  1  0
 12 13  1  0
 13 14  1  0
 14 15  1  0
 15 16  1  0
 16 17  1  0
 17 18  1  0
 18 19  1  0
 19 20  1  0
 20 21  1  0
 21 22  1  0
 22 23  1  0
 23 24  1  0
 24 25  2  0
 24 26  1  0
 26 27  2  0
 27 28  1  0
 28 29  2  0
 29 30  1  0
 30 31  2  0
 31 32  1  0
 31 33  1  0
 33 34  1  0
 34 35  1  0
 33 36  2  0
 36 28  1  0
  1 37  1  0
  1 38  1  0
  1 39  1  0
  2 40  1  0
  2 41  1  0
  3 42  1  0
  3 43  1  0
  4 44  1  0
  4 45  1  0
  5 46  1  0
  5 47  1  0
  6 48  1  0
  6 49  1  0
  7 50  1  0
  7 51  1  0
  8 52  1  0
  8 53  1  0
  9 54  1  0
  9 55  1  0
 10 56  1  0
 10 57  1  0
 11 58  1  0
 11 59  1  0
 12 60  1  0
 12 61  1  0
 13 62  1  0
 13 63  1  0
 14 64  1  0
 14 65  1  0
 15 66  1  0
 15 67  1  0
 16 68  1  0
 16 69  1  0
 17 70  1  0
 17 71  1  0
 18 72  1  0
 18 73  1  0
 19 74  1  0
 19 75  1  0
 20 76  1  0
 20 77  1  0
 21 78  1  0
 21 79  1  0
 22 80  1  0
 22 81  1  0
 26 82  1  0
 27 83  1  0
 29 84  1  0
 30 85  1  0
 35 86  1  0
 35 87  1  0
 35 88  1  0
 36 89  1  0
M  CHG  1  32  -1
M  END
$$$$
