
     RDKit          3D

 89 89  0  0  0  0  0  0  0  0999 V2000
    2.3818   27.8556    5.2048 C   0  0  0  0  0  0  0  0  0  0  0  0
    3.3719   26.8063    4.7984 C   0  0  0  0  0  0  0  0  0  0  0  0
    2.6683   25.4626    4.5857 C   0  0  0  0  0  0  0  0  0  0  0  0
    3.6525   24.3965    4.1762 C   0  0  0  0  0  0  0  0  0  0  0  0
    2.8910   23.0811    3.9793 C   0  0  0  0  0  0  0  0  0  0  0  0
    3.8419   21.9873    3.5683 C   0  0  0  0  0  0  0  0  0  0  0  0
    3.1000   20.6636    3.3664 C   0  0  0  0  0  0  0  0  0  0  0  0
    4.0308   19.5666    2.9578 C   0  0  0  0  0  0  0  0  0  0  0  0
    3.3754   18.2350    2.7404 C   0  0  0  0  0  0  0  0  0  0  0  0
    4.3266   17.1469    2.3308 C   0  0  0  0  0  0  0  0  0  0  0  0
    3.5164   15.8733    2.1515 C   0  0  0  0  0  0  0  0  0  0  0  0
    4.3782   14.7093    1.7376 C   0  0  0  0  0  0  0  0  0  0  0  0
    3.5964   13.4455    1.5562 C   0  0  0  0  0  0  0  0  0  0  0  0
    4.4959   12.2822    1.1366 C   0  0  0  0  0  0  0  0  0  0  0  0
    3.5840   11.0858    0.9918 C   0  0  0  0  0  0  0  0  0  0  0  0
    4.3207    9.8551    0.5813 C   0  0  0  0  0  0  0  0  0  0  0  0
    3.4175    8.6660    0.4369 C   0  0  0  0  0  0  0  0  0  0  0  0
    4.2643    7.4408    0.0106 C   0  0  0  0  0  0  0  0  0  0  0  0
    3.3320    6.2798   -0.1226 C   0  0  0  0  0  0  0  0  0  0  0  0
    3.9786    5.0289   -0.5237 C   0  0  0  0  0  0  0  0  0  0  0  0
    3.2747    3.7630   -0.7178 C   0  0  0  0  0  0  0  0  0  0  0  0
    3.9550    2.5234   -1.1215 C   0  0  0  0  0  0  0  0  0  0  0  0
    4.9491    2.1946   -0.1429 O   0  0  0  0  0  0  0  0  0  0  0  0
    5.6530    1.0678   -0.4240 C   0  0  0  0  0  0  0  0  0  0  0  0
    5.5073    0.3519   -1.4010 O   0  0  0  0  0  0  0  0  0  0  0  0
    6.6305    0.8627    0.6611 C   0  0  0  0  0  0  0  0  0  0  0  0
    7.4634   -0.1881    0.6331 C   0  0  0  0  0  0  0  0  0  0  0  0
    8.4515   -0.4657    1.6840 C   0  0  0  0  0  0  0  0  0  0  0  0
    9.1629    0.5349    2.3322 C   0  0  0  0  0  0  0  0  0  0  0  0
   10.1076    0.2042    3.3150 C   0  0  0  0  0  0  0  0  0  0  0  0
   10.4201   -1.1165    3.7137 C   0  0  0  0  0  0  0  0  0  0  0  0
   11.2951   -1.2941    4.6298 O   0  0  0  0  0  0  0  0  0  0  0  0
    9.6912   -2.1185    3.0137 C   0  0  0  0  0  0  0  0  0  0  0  0
    9.7682   -3.4914    3.1593 O   0  0  0  0  0  0  0  0  0  0  0  0
   10.7194   -4.0080    4.0760 C   0  0  0  0  0  0  0  0  0  0  0  0
    8.7368   -1.7872    2.0234 C   0  0  0  0  0  0  0  0  0  0  0  0
    1.6143   27.9987    4.4370 H   0  0  0  0  0  0  0  0  0  0  0  0
    2.8842   28.8163    5.3570 H   0  0  0  0  0  0  0  0  0  0  0  0
    1.8802   27.5896    6.1411 H   0  0  0  0  0  0  0  0  0  0  0  0
    4.1415   26.7067    5.5726 H   0  0  0  0  0  0  0  0  0  0  0  0
    3.8767   27.1141    3.8754 H   0  0  0  0  0  0  0  0  0  0  0  0
    1.8945   25.5758    3.8160 H   0  0  0  0  0  0  0  0  0  0  0  0
    2.1592   25.1686    5.5122 H   0  0  0  0  0  0  0  0  0  0  0  0
    4.4232   24.2723    4.9462 H   0  0  0  0  0  0  0  0  0  0  0  0
    4.1578   24.6806    3.2454 H   0  0  0  0  0  0  0  0  0  0  0  0
    2.3819   22.8041    4.9107 H   0  0  0  0  0  0  0  0  0  0  0  0
    2.1170   23.2116    3.2129 H   0  0  0  0  0  0  0  0  0  0  0  0
    4.3525   22.2651    2.6379 H   0  0  0  0  0  0  0  0  0  0  0  0
    4.6172   21.8580    4.3337 H   0  0  0  0  0  0  0  0  0  0  0  0
    2.5872   20.3886    4.2964 H   0  0  0  0  0  0  0  0  0  0  0  0
    2.3229   20.7950    2.6031 H   0  0  0  0  0  0  0  0  0  0  0  0
    4.5496   19.8605    2.0358 H   0  0  0  0  0  0  0  0  0  0  0  0
    4.8125   19.4560    3.7208 H   0  0  0  0  0  0  0  0  0  0  0  0
    2.5950   18.3474    1.9761 H   0  0  0  0  0  0  0  0  0  0  0  0
    2.8584   17.9423    3.6639 H   0  0  0  0  0  0  0  0  0  0  0  0
    4.8331   17.4106    1.3951 H   0  0  0  0  0  0  0  0  0  0  0  0
    5.0985   17.0024    3.0957 H   0  0  0  0  0  0  0  0  0  0  0  0
    2.7370   16.0339    1.3955 H   0  0  0  0  0  0  0  0  0  0  0  0
    3.0013   15.6274    3.0890 H   0  0  0  0  0  0  0  0  0  0  0  0
    4.8964   14.9566    0.8022 H   0  0  0  0  0  0  0  0  0  0  0  0
    5.1600   14.5511    2.4915 H   0  0  0  0  0  0  0  0  0  0  0  0
    3.0821   13.1966    2.4935 H   0  0  0  0  0  0  0  0  0  0  0  0
    2.8177   13.6034    0.7989 H   0  0  0  0  0  0  0  0  0  0  0  0
    5.2650   12.0977    1.8952 H   0  0  0  0  0  0  0  0  0  0  0  0
    4.9988   12.5072    0.1893 H   0  0  0  0  0  0  0  0  0  0  0  0
    2.8033   11.3033    0.2509 H   0  0  0  0  0  0  0  0  0  0  0  0
    3.0672   10.8973    1.9420 H   0  0  0  0  0  0  0  0  0  0  0  0
    5.1021    9.6347    1.3202 H   0  0  0  0  0  0  0  0  0  0  0  0
    4.8385   10.0401   -0.3687 H   0  0  0  0  0  0  0  0  0  0  0  0
    2.9097    8.4566    1.3863 H   0  0  0  0  0  0  0  0  0  0  0  0
    2.6442    8.8650   -0.3151 H   0  0  0  0  0  0  0  0  0  0  0  0
    4.7695    7.6465   -0.9404 H   0  0  0  0  0  0  0  0  0  0  0  0
    5.0353    7.2376    0.7632 H   0  0  0  0  0  0  0  0  0  0  0  0
    2.5481    6.5220   -0.8524 H   0  0  0  0  0  0  0  0  0  0  0  0
    2.8108    6.1182    0.8303 H   0  0  0  0  0  0  0  0  0  0  0  0
    4.5187    5.2304   -1.4610 H   0  0  0  0  0  0  0  0  0  0  0  0
    4.7808    4.8377    0.2045 H   0  0  0  0  0  0  0  0  0  0  0  0
    2.4702    3.9408   -1.4449 H   0  0  0  0  0  0  0  0  0  0  0  0
    2.7526    3.5486    0.2263 H   0  0  0  0  0  0  0  0  0  0  0  0
    4.4387    2.6559   -2.0967 H   0  0  0  0  0  0  0  0  0  0  0  0
    3.2349    1.6993   -1.1938 H   0  0  0  0  0  0  0  0  0  0  0  0
    6.6297    1.5809    1.4716 H   0  0  0  0  0  0  0  0  0  0  0  0
    7.4208   -0.9103   -0.1795 H   0  0  0  0  0  0  0  0  0  0  0  0
    9.0177    1.5826    2.0939 H   0  0  0  0  0  0  0  0  0  0  0  0
   10.6410    1.0204    3.8048 H   0  0  0  0  0  0  0  0  0  0  0  0
   11.7430   -3.7452    3.7911 H   0  0  0  0  0  0  0  0  0  0  0  0
   10.4773   -3.7332    5.1072 H   0  0  0  0  0  0  0  0  0  0  0  0
   10.6548   -5.1002    4.0240 H   0  0  0  0  0  0  0  0  0  0  0  0
    8.2135   -2.6017    1.5297 H   0  0  0  0  0  0  0  0  0  0  0  0
  1  2  1  0
  2  3  1  0
  3  4  1  0
  4  5  1  0
  5  6  1  0
  6  7  1  0
  7  8  1  0
  8  9  1  0
  9 10  1  0
 10 11  1  0
 11 12  1  0
 12 13  1  0
 13 14  1  0
 14 15  1  0
 15 16  1  0
 16 17  1  0
 17 18  1  0
 18 19  1  0
 19 20  1  0
 20 21  1  0
 21 22  1  0
 22 23  1  0
 23 24  1  0
 24 25  2  0
 24 26  1  0
 26 27  2  0
 27 28  1  0
 28 29  2  0
 29 30  1  0
 30 31  2  0
 31 32  1  0
 31 33  1  0
 33 34  1  0
 34 35  1  0
 33 36  2  0
 36 28  1  0
  1 37  1  0
  1 38  1  0
  1 39  1  0
  2 40  1  0
  2 41  1  0
  3 42  1  0
  3 43  1  0
  4 44  1  0
  4 45  1  0
  5 46  1  0
  5 47  1  0
  6 48  1  0
  6 49  1  0
  7 50  1  0
  7 51  1  0
  8 52  1  0
  8 53  1  0
  9 54  1  0
  9 55  1  0
 10 56  1  0
 10 57  1  0
 11 58  1  0
 11 59  1  0
 12 60  1  0
 12 61  1  0
 13 62  1  0
 13 63  1  0
 14 64  1  0
 14 65  1  0
 15 66  1  0
 15 67  1  0
 16 68  1  0
 16 69  1  0
 17 70  1  0
 17 71  1  0
 18 72  1  0
 18 73  1  0
 19 74  1  0
 19 75  1  0
 20 76  1  0
 20 77  1  0
 21 78  1  0
 21 79  1  0
 22 80  1  0
 22 81  1  0
 26 82  1  0
 27 83  1  0
 29 84  1  0
 30 85  1  0
 35 86  1  0
 35 87  1  0
 35 88  1  0
 36 89  1  0
M  CHG  1  32  -1
M  END
$$$$
