
     RDKit          3D

 22 22  0  0  0  0  0  0  0  0999 V2000
   -3.8978   -0.7333    0.4701 C   0  0  0  0  0  0  0  0  0  0  0  0
   -2.5639   -1.0712    0.8202 O   0  0  0  0  0  0  0  0  0  0  0  0
   -1.5872   -0.6575   -0.0711 C   0  0  0  0  0  0  0  0  0  0  0  0
   -0.3545   -0.4361    0.5904 C   0  0  0  0  0  0  0  0  0  0  0  0
    0.7847   -0.0004   -0.0885 C   0  0  0  0  0  0  0  0  0  0  0  0
    2.0435    0.1929    0.6564 C   0  0  0  0  0  0  0  0  0  0  0  0
    3.0597    0.9931    0.2915 C   0  0  0  0  0  0  0  0  0  0  0  0
    4.3392    1.1521    1.1161 C   0  0  0  0  0  0  0  0  0  0  0  0
    4.4106    0.5045    2.1978 O   0  0  0  0  0  0  0  0  0  0  0  0
    5.1904    1.9342    0.5973 O   0  0  0  0  0  0  0  0  0  0  0  0
    0.6719    0.1771   -1.4621 C   0  0  0  0  0  0  0  0  0  0  0  0
   -0.5496   -0.0653   -2.1197 C   0  0  0  0  0  0  0  0  0  0  0  0
   -1.7341   -0.4974   -1.4785 C   0  0  0  0  0  0  0  0  0  0  0  0
   -2.7871   -0.7209   -2.1744 O   0  0  0  0  0  0  0  0  0  0  0  0
   -4.3267   -1.4754   -0.2093 H   0  0  0  0  0  0  0  0  0  0  0  0
   -4.4918   -0.7741    1.3895 H   0  0  0  0  0  0  0  0  0  0  0  0
   -3.9877    0.2886    0.0854 H   0  0  0  0  0  0  0  0  0  0  0  0
   -0.3115   -0.5988    1.6636 H   0  0  0  0  0  0  0  0  0  0  0  0
    2.1299   -0.3629    1.5887 H   0  0  0  0  0  0  0  0  0  0  0  0
    3.0145    1.5851   -0.6161 H   0  0  0  0  0  0  0  0  0  0  0  0
    1.5259    0.4875   -2.0543 H   0  0  0  0  0  0  0  0  0  0  0  0
   -0.5784    0.0785   -3.1999 H   0  0  0  0  0  0  0  0  0  0  0  0
  1  2  1  0
  2  3  1  0
  3  4  2  0
  4  5  1  0
  5  6  1  0
  6  7  2  0
  7  8  1  0
  8  9  2  0
  8 10  1  0
  5 11  2  0
 11 12  1  0
 12 13  2  0
 13 14  1  0
 13  3  1  0
  1 15  1  0
  1 16  1  0
  1 17  1  0
  4 18  1  0
  6 19  1  0
  7 20  1  0
 11 21  1  0
 12 22  1  0
M  CHG  2  10  -1  14  -1
M  END
$$$$
