
     RDKit          3D

 37 39  0  0  0  0  0  0  0  0999 V2000
    5.6452    0.2113   -0.8969 C   0  0  0  0  0  0  0  0  0  0  0  0
    5.0686    0.4984    0.4766 C   0  0  0  0  0  0  0  0  0  0  0  0
    3.7333    1.0091    0.3549 O   0  0  0  0  0  0  0  0  0  0  0  0
    2.7361    0.0897    0.2801 C   0  0  0  0  0  0  0  0  0  0  0  0
    2.8873   -1.1265    0.3127 O   0  0  0  0  0  0  0  0  0  0  0  0
    1.4038    0.6981    0.1666 C   0  0  0  0  0  0  0  0  0  0  0  0
    1.1756    2.0429    0.2888 N   0  0  0  0  0  0  0  0  0  0  0  0
   -0.1170    2.2047    0.1584 C   0  0  0  0  0  0  0  0  0  0  0  0
   -0.7907    1.0144   -0.0297 N   0  0  0  0  0  0  0  0  0  0  0  0
    0.1959    0.0404   -0.0560 C   0  0  0  0  0  0  0  0  0  0  0  0
   -0.0506   -1.3859   -0.3097 C   0  0  0  0  0  0  0  0  0  0  0  0
   -0.9637   -1.9661    0.6832 N   0  0  0  0  0  0  0  0  0  0  0  0
   -0.5872   -1.8370    2.1172 C   0  0  0  0  0  0  0  0  0  0  0  0
   -2.3475   -1.6712    0.4141 C   0  0  0  0  0  0  0  0  0  0  0  0
   -3.0089   -2.6893    0.4857 O   0  0  0  0  0  0  0  0  0  0  0  0
   -2.9107   -0.3452    0.0414 C   0  0  0  0  0  0  0  0  0  0  0  0
   -4.3161   -0.3572   -0.1032 C   0  0  0  0  0  0  0  0  0  0  0  0
   -5.0133    0.7990   -0.4185 C   0  0  0  0  0  0  0  0  0  0  0  0
   -6.3432    0.7533   -0.5469 F   0  0  0  0  0  0  0  0  0  0  0  0
   -4.3453    1.9925   -0.6014 C   0  0  0  0  0  0  0  0  0  0  0  0
   -2.9558    2.0296   -0.4663 C   0  0  0  0  0  0  0  0  0  0  0  0
   -2.2105    0.8691   -0.1444 C   0  0  0  0  0  0  0  0  0  0  0  0
    5.0652   -0.5605   -1.4127 H   0  0  0  0  0  0  0  0  0  0  0  0
    5.6101    1.1083   -1.5238 H   0  0  0  0  0  0  0  0  0  0  0  0
    6.6829   -0.1250   -0.8194 H   0  0  0  0  0  0  0  0  0  0  0  0
    5.0960   -0.3909    1.1165 H   0  0  0  0  0  0  0  0  0  0  0  0
    5.6640    1.2718    0.9727 H   0  0  0  0  0  0  0  0  0  0  0  0
   -0.6024    3.1698    0.2352 H   0  0  0  0  0  0  0  0  0  0  0  0
    0.8521   -1.9981   -0.2819 H   0  0  0  0  0  0  0  0  0  0  0  0
   -0.4857   -1.5380   -1.3061 H   0  0  0  0  0  0  0  0  0  0  0  0
   -0.9724   -2.9800    0.5050 H   0  0  0  0  0  0  0  0  0  0  0  0
    0.4520   -2.1583    2.2289 H   0  0  0  0  0  0  0  0  0  0  0  0
   -1.2392   -2.4914    2.7033 H   0  0  0  0  0  0  0  0  0  0  0  0
   -0.7109   -0.7984    2.4354 H   0  0  0  0  0  0  0  0  0  0  0  0
   -4.9010   -1.2675    0.0323 H   0  0  0  0  0  0  0  0  0  0  0  0
   -4.9062    2.8889   -0.8566 H   0  0  0  0  0  0  0  0  0  0  0  0
   -2.4897    2.9951   -0.6592 H   0  0  0  0  0  0  0  0  0  0  0  0
  1  2  1  0
  2  3  1  0
  3  4  1  0
  4  5  2  0
  4  6  1  0
  6  7  1  0
  7  8  2  0
  8  9  1  0
  9 10  1  0
 10 11  1  0
 11 12  1  0
 12 13  1  0
 12 14  1  0
 14 15  2  0
 14 16  1  0
 16 17  2  0
 17 18  1  0
 18 19  1  0
 18 20  2  0
 20 21  1  0
 21 22  2  0
 10  6  2  0
 22 16  1  0
 22  9  1  0
  1 23  1  0
  1 24  1  0
  1 25  1  0
  2 26  1  0
  2 27  1  0
  8 28  1  0
 11 29  1  0
 11 30  1  0
 12 31  1  0
 13 32  1  0
 13 33  1  0
 13 34  1  0
 17 35  1  0
 20 36  1  0
 21 37  1  0
M  CHG  1  12   1
M  END
$$$$
